12
 energy: -20.581920264202 gnorm: 0.000406116624 xtb: 6.6.1 (8d0f1dd)
C            3.06637625379221       -4.60255501970399        3.50330299880390
C            2.45624984925874       -3.59641966018762        2.80676824542005
C            1.16057424222280       -3.66040923691782        2.24360085467766
C            0.32172611777124       -4.73845381802060        2.31000437944988
H            2.72538606740195       -5.62032205075455        3.43229671273808
H            4.04268250611623       -4.45414405925095        3.93147908616753
H            2.94440646313701       -2.63138681994511        2.77283707974263
H            0.77386392510527       -2.73860443863056        1.82952813082675
H           -0.66525516842292       -4.68710900333307        1.88363634866288
H            0.69041836727267       -5.72160680398959        2.54380726231103
Cl           1.85533897531403       -4.55040810427584        5.60624870535587
Cl          -0.39424114297401       -4.66287349598949        4.62490238784307
