12
 energy: -16.873444500585 gnorm: 0.000056287406 xtb: 6.3.2 (452493c)
C         0.15947305883433   -0.93942368891415   -0.08325047345763
H         0.78359745418313   -0.22071838513371   -0.59822477414601
H        -1.32383037337365   -2.11226966317879   -0.36669901787377
H         0.57851716245541   -1.50597304979668    0.73805073779784
O        -0.66476773426476    0.25472587441766    1.04162640245800
H        -0.00719185927067    0.77841185113662    1.52814841314905
H        -1.22678024963961    0.84425845553924    0.51008473964416
N         1.70068399303433   -2.32630645802796   -1.16780598991876
H         1.74062424077400   -3.27933042702210   -0.82676543464367
H         1.40470370758535   -2.35941830348098   -2.13615408452134
H         2.64256961157166   -1.95439480670365   -1.14403451488121
O        -0.83287529489296   -1.38177661583022   -0.78060724460378
