8
-12.83731981677
C 0.33500958260490776 -0.8611731083033445 -0.20415429347335887
H 0.7725226345270892 -0.17461428787866354 -0.9090600381962571
H -0.540344472591885 -1.4015255246457934 -0.52330538209781
H 0.7518158589792246 -1.0002747461423747 0.7990068081510937
O -0.6871048769709467 0.4861748799319546 0.5752995971481881
H -1.2393781375158648 0.12152916157643655 1.2914080932703373
H -0.10818570141457821 1.1940735269229843 0.913751278601255
Cl 1.7172018224573353 -2.3999074373328972 -0.44399057635737094
