8
 energy: -12.775385811139 gnorm: 0.000829466145 xtb: 6.6.1 (8d0f1dd)
C            0.37633038201861       -0.89970314723820       -0.21304193121175
H            0.56414512775075       -0.10636665167005       -0.94619847240185
H           -0.57697692606960       -1.40333572227110       -0.41174425944656
H            0.82574991438226       -0.90440093481186        0.82709636333958
O           -0.50035727564824        0.23508208073039        0.61821738785608
H           -1.09367336325935       -0.03025789898354        1.36095540569775
H           -0.10900785028714        1.10983982313038        0.85376760624511
Cl           1.51704950711264       -2.04252981388598       -0.59261010607838
