16
 energy: -17.815738748107 gnorm: 0.000543921612 xtb: 6.6.1 (8d0f1dd)
C           -2.01941329485386       -0.15270197033109       -0.35816828718864
C           -1.28332696442753       -0.15414576985547       -1.57435971012720
C            0.09533763123113       -0.14416198345848       -1.55249280679521
C            0.82125020764126        0.02973163754491       -0.39445712637562
H           -1.70373897198537        0.57016941037372        0.38347395994233
H           -3.09749869032504       -0.16807866675366       -0.47062546956006
H           -1.79164800208051       -0.41906759005569       -2.49014720072817
H            0.62720316746699       -0.40265123065288       -2.45974275654839
H            1.88200369998627       -0.15303285015757       -0.38112218335321
H            0.42708452948494        0.57806459340875        0.44049012448419
C           -1.64679151146966       -1.68477587094744        0.50753999585362
C           -0.27816732784097       -1.84916842947304        0.83140439189912
H           -2.29564165986855       -1.53755125120367        1.36387641197161
H           -2.03974640330047       -2.42365134550150       -0.18143383872186
H            0.11043349105643       -1.48832797723378        1.76579651587613
H            0.34555848128548       -2.51643718370199        0.26788094037142
