16
 energy: -17.800835170247 gnorm: 0.000645556114 xtb: 6.6.1 (8d0f1dd)
C           -1.92445129304756       -0.19938670692065       -0.28973971589693
C           -1.24007998478556       -0.20616193603912       -1.50895115917752
C            0.16037861442616       -0.04946529337676       -1.62700724581930
C            1.00443597547654        0.24376426075614       -0.61892752689823
H           -1.53321187233041        0.45391619748702        0.47879818553690
H           -3.00239480041627       -0.13443932638085       -0.37413515810086
H           -1.76789999672719       -0.55156145391107       -2.38770068692711
H            0.57630245020684       -0.20289152602864       -2.61548678450515
H            2.06806998393202        0.28422758759681       -0.77506533539888
H            0.66183071800687        0.44480728957689        0.37989818255631
C           -1.77175271884553       -1.79256164161880        0.53489588302956
C           -0.50619270034262       -2.03298987210038        1.04615863970873
H           -2.53994269582129       -1.61856586092711        1.28011872269800
H           -2.09904628050635       -2.46348505989824       -0.25096098776972
H           -0.18879242206671       -1.57996190683743        1.96930001406018
H            0.25564540487122       -2.51103122941268        0.45671793385311
