8
 energy: -12.822883283172 gnorm: 0.000876378772 xtb: 6.6.1 (8d0f1dd)
C            0.30328874756064       -0.83376152941053       -0.21884685341130
H            0.64416882746821       -0.14797090499049       -0.97494797562062
H           -0.54562449298103       -1.45977985636899       -0.43168012862017
H            0.89764315677857       -1.00583684172607        0.67218400340685
O           -0.80078665701356        0.56868068732625        0.73260521344487
H           -1.22281012113367        0.11819996013546        1.48363266256760
H           -0.17270430695762        1.24105743916333        1.04682973256135
Cl           1.90008436227841       -2.52226121912906       -0.81333466032853
