%nprocs=1
# freq=noraman 
external="xtb-gaussian -P 4"

Simple test

0 1                                                                          
C           -2.13711156068031        0.05141639499171       -0.54027789761968
C           -1.33508532022032       -0.11014253237360       -1.61986188535125
C            0.07728813184982       -0.12003471518228       -1.52144269182782
C            0.72576486065950        0.03616420679778       -0.34343080953684
H           -1.80576840341406        0.58797535077273        0.32946856431898
H           -3.20450055194442       -0.06944037400443       -0.63105367349958
H           -1.76673207406558       -0.44781673814844       -2.55287408663323
H            0.62928841553444       -0.46324475572199       -2.38659216896274
H            1.79299875602132       -0.10355871520469       -0.28428768518767
H            0.28330836599347        0.57112828507977        0.47620458971147
C           -1.48833606611845       -1.81002386583862        0.64735226640902
C           -0.14174948306440       -1.82552703391887        0.75272240043124
H           -2.10221546518210       -1.43355034994898        1.44733410599615
H           -1.98820180054709       -2.41054945426570       -0.09235431414076
H            0.35106225440483       -1.45148643629585        1.63332774814517
H            0.45579563077268       -2.43044694173699        0.09376442874947





