16
 energy: -17.812259200775 gnorm: 0.000001881548 xtb: 6.6.1 (8d0f1dd)
C           -2.14082098283245        0.05597925014192       -0.54493216825706
C           -1.33608680352138       -0.10898029611721       -1.62145194627262
C            0.07613798206143       -0.12115648028300       -1.51990864546175
C            0.72159946768497        0.03210530178694       -0.33955854968471
H           -1.81024681606187        0.58868225055675        0.32737422358920
H           -3.20802333746255       -0.06480033479029       -0.63755619982783
H           -1.76604980203377       -0.44538175158434       -2.55572922509625
H            0.62948078272139       -0.46579358310807       -2.38360083941256
H            1.78873601640264       -0.10768790941276       -0.27853364949196
H            0.27861929265822        0.57033345690382        0.47774977928595
C           -1.48405477727094       -1.81179243701449        0.65114452754092
C           -0.13705720529631       -1.82439372935566        0.74984636465253
H           -2.09538103111794       -1.43196152273296        1.45140832225875
H           -1.98703841828205       -2.40975131685256       -0.08839908723331
H            0.35844028185866       -1.45325744939743        1.63024703954305
H            0.45755104049183       -2.43128112374079        0.08989894487016
