16
 energy: -17.822121564230 gnorm: 0.000708359736 xtb: 6.6.1 (8d0f1dd)
C           -2.24858728767125        0.35344865108140       -0.80861355636427
C           -1.35835660725105        0.01474874309649       -1.73563000908381
C            0.06888842129176       -0.14747915759846       -1.52549820779297
C            0.72915314696970        0.13873557900820       -0.40763973497161
H           -1.96784891577107        0.56065898051927        0.20873060578891
H           -3.29674095978651        0.43935452516452       -1.03958876987564
H           -1.70055988654172       -0.18759009969772       -2.74316414898599
H            0.61305551226887       -0.55887133290308       -2.36670766829058
H            1.79063329300385       -0.02112248254552       -0.32524834504491
H            0.24748389857185        0.57969051728213        0.44678685614664
C           -1.44569019578986       -2.16623008711172        0.99330865254169
C           -0.12813592701589       -2.18687623993310        0.99956773500532
H           -2.01426083319481       -1.70485503645501        1.78401857692793
H           -2.01942417056544       -2.60736271260791        0.19557014905434
H            0.44575893339336       -1.75714914895043        1.80410352353729
H            0.43752996008851       -2.66488717634806        0.21791730240705
