8
 energy: -12.856786164851 gnorm: 0.000990186599 xtb: 6.6.1 (8d0f1dd)
C            0.48949721524312       -1.54049588549240        0.04853781087404
H            0.04726901565774       -0.47027444380310        0.14720608980257
H           -0.28871151518443       -2.23958732766634       -0.22252721786335
H            1.17812488893517       -1.74691614878989        0.85510431577774
O           -0.59242704477658        0.98854376827627        0.41002674706838
H           -1.45231359447072        0.82853813588138        0.82905046422312
H           -0.00423529007420        1.44048053364685        1.03395156538970
Cl           1.62605584066989       -1.30196089705289       -1.60490778127179
