8
 energy: -12.767872881016 gnorm: 0.000634016768 xtb: 6.6.1 (8d0f1dd)
C            0.62568505002589       -1.14472002335682       -0.39975858950138
H            1.01969383591571       -0.43975229511994       -1.11842431985450
H           -0.28381325568281       -1.68537474548150       -0.62086672564751
H            1.05841708038691       -1.20117878036200        0.58937826701332
O           -1.02188934426526        0.96114372804418        1.26535849738959
H           -1.75900096640302        0.75851981065351        1.85963257419611
H           -0.85262198130114        1.91392690193871        1.27746582040252
Cl           2.21678909732341       -3.20423686131702       -1.35634352999877
