16
 energy: -17.800836579176 gnorm: 0.000625216524 xtb: 6.6.1 (8d0f1dd)
C           -2.34540584536030        0.34685107976730       -0.88295699881348
C           -1.37226099556325       -0.00045995505970       -1.74719943036763
C           -0.01986747233514       -0.24050894053810       -1.41064340157480
C            0.46289122711357       -0.27180316555892       -0.09868059245330
H           -2.15216665558134        0.53166394314630        0.15828142729097
H           -3.36727961442220        0.44844336089359       -1.20338505226882
H           -1.63556745135307       -0.13319639155176       -2.78959859598635
H            0.61750112551950       -0.62288068313832       -2.19597896593265
H            1.54268697428161       -0.27394674280348       -0.01208675476707
H           -0.00327000555254        0.40707176757267        0.60268799165726
C           -1.25615480057343       -2.01234390863749        0.98408400847520
C            0.08623395676262       -1.85094485900202        0.67974826461616
H           -1.68648739925221       -1.54127289221524        1.85055652002909
H           -1.94509005100963       -2.43660423746624        0.27680412844049
H            0.73698479901225       -1.72468997890419        1.53779893563698
H            0.49015059031347       -2.54116487450523       -0.05151852298301
