8
 energy: -12.867898209890 gnorm: 0.000332063280 xtb: 6.6.1 (8d0f1dd)
C           -0.16723698693966       -0.57986157679444       -0.52638668040087
H            0.12888532979445        0.15404358327047       -1.26578711286810
H           -1.11866604866873       -1.07067148781411       -0.69477205309625
H            0.65345287799512       -1.30383055299185       -0.29870909868444
O           -0.35978009722878        0.27509429853100        0.86616401042967
H           -0.64425740394038       -0.37502628193715        1.54246628827275
H            0.53726284434177        0.60905007890425        1.07644885899417
Cl           1.97359900064412       -1.75047032616996        0.79701778133665
