8
 energy: -12.775175907021 gnorm: 0.000688071805 xtb: 6.6.1 (8d0f1dd)
C            0.38107782661023       -0.89159304604218       -0.12991128153490
H            0.77202565882442       -0.19619524956845       -0.85721382994706
H           -0.48009522730208       -1.49102868066764       -0.38692871824734
H            0.90484621809614       -1.06233201520348        0.79894261419887
O           -1.02944840768658        0.79739213350922        0.82135698513606
H           -1.38494010096780        0.37121320568183        1.61587543293898
H           -0.40582498535409        1.49187538688315        1.08221165087653
Cl           2.24561853377976       -3.06100399959241       -1.44789085942114
