16
 energy: -17.809776047354 gnorm: 0.000535201380 xtb: 6.6.1 (8d0f1dd)
C           -1.97160523998599       -0.05897513877020       -0.39858358726074
C           -1.25761163894071       -0.18433529897442       -1.53567355843285
C            0.16977542946221       -0.02643893174587       -1.62957535006826
C            0.98935520158937        0.24058925231274       -0.61081024436013
H           -1.57183145129359        0.47841834442178        0.44377900784776
H           -3.04629374654461       -0.13439985911978       -0.43406893252635
H           -1.74798164509968       -0.56264560848148       -2.42325530720665
H            0.59306710292715       -0.17629106743654       -2.61513880318480
H            2.05511895359791        0.30225653482587       -0.74932505165760
H            0.63129578807055        0.40743358515361        0.38885047662236
C           -1.74579335173999       -1.92220998899171        0.65239686491911
C           -0.47891721674932       -2.06443780126445        1.05368560886715
H           -2.49510662475727       -1.57247138169859        1.34441068676752
H           -2.11292228437240       -2.48159272559397       -0.19242641971143
H           -0.12057649688681       -1.62006145365232        1.96727206377281
H            0.26292560272381       -2.54062493898458        0.43637550661229
