16
 energy: -17.815005639105 gnorm: 0.000937253448 xtb: 6.6.1 (8d0f1dd)
C           -2.15770729529059        0.13024072853719       -0.57268083996374
C           -1.33811267374970       -0.11661659753887       -1.60201311113656
C            0.09240607875560       -0.16547829474876       -1.49347668085680
C            0.76250013959703        0.03183358102578       -0.35147913748584
H           -1.80923182257505        0.56242493028526        0.34649110136476
H           -3.22729457429991        0.06380274043977       -0.68539693538900
H           -1.75710574805115       -0.44023453310738       -2.54600407331393
H            0.62544882315382       -0.52338754040280       -2.36484733405550
H            1.82968503948235       -0.10842244298376       -0.30197845356414
H            0.31038696829353        0.49412429761003        0.50565390728257
C           -1.52224611144965       -1.92111880965221        0.70788929350144
C           -0.19749426513072       -1.94958741578346        0.83360607748962
H           -2.15483277259631       -1.48679863194973        1.46310393726148
H           -2.02310957002343       -2.44747003394639       -0.08579349817923
H            0.29798054478685       -1.53623781459991        1.69528215330849
H            0.42162562109759       -2.50286064118423        0.14955655473749
