16
 energy: -17.884848832094 gnorm: 0.000884889476 xtb: 6.6.1 (8d0f1dd)
C           -2.10209737313998       -0.17018528392405       -0.41378490070020
C           -1.28639680615682       -0.15706082753643       -1.63301124099163
C            0.04114553440470       -0.20710391329663       -1.53323743834430
C            0.66446843261264       -0.26492110552788       -0.20639006599161
H           -1.89584817324186        0.66049911088438        0.25380364380909
H           -3.16605001486566       -0.28347321118380       -0.58345262617512
H           -1.78419124431253       -0.17847729402518       -2.59143440615079
H            0.67316783800831       -0.27060706643298       -2.40694990653258
H            1.73000756121827       -0.46067164286440       -0.21743492456284
H            0.42989781235155        0.59361893622598        0.41523896182545
C           -1.58193387278200       -1.60141327085016        0.53811469870666
C           -0.09453617723463       -1.62990305611969        0.68010413331311
H           -2.10449910724136       -1.49613508306299        1.48211263551622
H           -1.96977105014580       -2.44218602709911       -0.02548360202648
H            0.24347336789905       -1.49664683115607        1.70160421808790
H            0.35606165462548       -2.51111991203003        0.23811378121744
