8
 energy: -12.854209181445 gnorm: 0.000882132933 xtb: 6.6.1 (8d0f1dd)
C            0.30825106903562       -1.03667630517022       -0.68001580962056
H            0.72097354184650       -0.40106442592362       -1.44657261110828
H           -0.49215467178882       -1.72962134970093       -0.88145988692767
H           -0.03178080254106       -0.30952764056038        0.29181486532544
O           -0.52653562947410        0.45262059749659        1.00877825394705
H           -0.94809789552549       -0.01393956222564        1.75586779367204
H            0.13854099212279        1.09087832329731        1.33058040539044
Cl           1.83406291232451       -2.09434190221309        0.11744898332202
