16
 energy: -17.809774538948 gnorm: 0.000584216251 xtb: 6.6.1 (8d0f1dd)
C           -2.33084987671055        0.34428592797479       -0.87217005407797
C           -1.37860686787582        0.02720504356917       -1.75140691780261
C            0.00335122818175       -0.22043964079884       -1.43472026951529
C            0.53548507233054       -0.13670023074925       -0.19859028902776
H           -2.12582393457767        0.48605892353547        0.17346303704658
H           -3.35583836473192        0.47090167897218       -1.17676784631416
H           -1.64888321695384       -0.09476645171535       -2.79322403745044
H            0.60315095321510       -0.63084022671933       -2.23682208821531
H            1.59537367332141       -0.27973529439429       -0.06512252147316
H            0.04228965407185        0.42748724178357        0.57357764835198
C           -1.28800237700676       -2.04270517280869        0.98643016031830
C            0.03252893319152       -1.97871181473100        0.79197868116426
H           -1.75881654510133       -1.57502060505297        1.83494614074158
H           -1.94958916904652       -2.47726762340564        0.25707498532248
H            0.68218458089128       -1.67245220309740        1.59606157479526
H            0.49494463880018       -2.56308603036239        0.01320475713557
