8
 energy: -12.805824988164 gnorm: 0.000384576301 xtb: 6.6.1 (8d0f1dd)
C            0.45620232128346       -0.99341949954807       -0.28183877557043
H            0.75008439726520       -0.24060180874163       -0.99532607965311
H           -0.45362456543611       -1.54556173344227       -0.45113780402377
H            0.91482386056612       -1.00382906817953        0.69690193059864
O           -0.85185551625923        0.66887978618482        0.85025682681636
H           -1.41271357114624        0.33456021149094        1.56547054866055
H           -0.35313455777615        1.43838880300572        1.16242305049105
Cl           1.95347714750287       -2.70008895577006       -1.05030770331934
