16
 energy: -17.818080211225 gnorm: 0.000408208918 xtb: 6.6.1 (8d0f1dd)
C           -2.11206827390039       -0.00394639040925       -0.49415115796595
C           -1.30772157266380       -0.11976958638234       -1.61646340466540
C            0.07108688961315       -0.16489878111744       -1.50691786518527
C            0.69407852357519       -0.09479647593064       -0.27132196763856
H           -1.80085686995938        0.61995638392199        0.32589249772138
H           -3.18066678831565       -0.10707127452631       -0.60161657626362
H           -1.76081102689947       -0.39216000449519       -2.56016439237001
H            0.64844815959808       -0.47177212646128       -2.36864556539263
H            1.75716425450373       -0.26809848472706       -0.20916734100562
H            0.29911364057643        0.55376818046985        0.49157706826475
C           -1.54102673326779       -1.75594410308450        0.61067844209610
C           -0.15522189914340       -1.79798276667267        0.72566714589992
H           -2.13022846792697       -1.45704710801822        1.46147947108362
H           -2.02773707309184       -2.42619389823207       -0.07761411245643
H            0.30228476920307       -1.52834405721524        1.66291183572641
H            0.39706085009910       -2.50148598511941        0.12576888315108
