8
 energy: -12.801265569589 gnorm: 0.000362547086 xtb: 6.6.1 (8d0f1dd)
C            0.58316362571924       -1.12217346813133       -0.34133724464988
H            0.91676654200134       -0.34763642844763       -1.01410731962444
H           -0.35476896343626       -1.61568907631652       -0.54302159873018
H            0.97023435797010       -1.13469137202883        0.66657681518833
O           -0.86945337857210        0.76472845041637        1.08310827905475
H           -1.59243369763745        0.56582424745051        1.69658733847269
H           -0.64796275721218        1.70574923111090        1.14391992349968
Cl           1.99771378716815       -2.85778384905423       -1.19528419921108
