8
 energy: -12.750112468927 gnorm: 0.000882674533 xtb: 6.6.1 (8d0f1dd)
C            0.55090714306701       -1.15146247498374       -0.35172295463947
H            0.88661932283052       -0.42390365323792       -1.08245263235291
H           -0.31901259208791       -1.76503146839759       -0.55856937665064
H            1.05188342767262       -1.22699788564253        0.60715656014930
O           -1.03024991074586        1.02813276980806        1.28242922165032
H           -1.83580353629429        0.87315785248937        1.79403723858063
H           -0.77053039864860        1.95405523938153        1.37803662904588
Cl           2.46944606020713       -3.32962264441746       -1.57247269178285
