16
 energy: -17.811168020847 gnorm: 0.000143239672 xtb: 6.6.1 (8d0f1dd)
C           -2.07894457204452       -0.00914138340283       -0.46595989127632
C           -1.30839376362678       -0.13534996955592       -1.58102272558440
C            0.10594285132316       -0.14601526129393       -1.51774312412904
C            0.79658087044582        0.03107681297187       -0.37132890486960
H           -1.73074109766310        0.56115668753427        0.37693847771147
H           -3.15155114499959       -0.09400927780418       -0.54630788865275
H           -1.76372076003161       -0.47129003810189       -2.50302113929915
H            0.63513136159724       -0.46923288082756       -2.40495209922428
H            1.86278183587068       -0.12015663870191       -0.34014421066058
H            0.36806784633544        0.51294130546713        0.48690456065359
C           -1.59375741109404       -1.80641127664496        0.61003373131953
C           -0.25924816482421       -1.89804638408908        0.81721071101172
H           -2.23959728145954       -1.46700601877198        1.40307310786702
H           -2.06092119882968       -2.42201837126673       -0.14073704404377
H            0.20068551631321       -1.50169789364245        1.70520812077960
H            0.37058349468772       -2.48058588987008        0.16976127939706
