15
 energy: -25.406210162206 gnorm: 0.000644487194 xtb: 6.6.1 (8d0f1dd)
O            2.54875169607889        0.66145549573471        0.92858103437830
O            0.94722590799903        2.49210497311524        1.24396414143104
O           -1.09413418751714        1.81832351372971        0.06306167228181
O           -0.97428953289739       -0.63002939940572        0.05215778939035
O            1.39427806786646       -0.98912304280999       -0.47050448344307
H            1.97878595132300       -0.16462772212146        0.22671258539449
H            1.74075072643442        1.57128697275904        1.08963447403295
H           -0.06992674673763        2.14565816009060        0.65321348667090
H           -1.04759480334358        0.59490923875624        0.03190488547235
H            0.20372617987291       -0.83240359550516       -0.21702856998532
H            1.30445558202685        3.22315388743853        0.73297546099171
H            2.66876464302607        0.24714054549226        1.78697194179422
H            1.50520179185280       -0.68958868700283       -1.37656638846858
H           -1.08009298520837       -0.89784230666301        0.96964178878713
H           -1.82843617777757        2.05395455439818        0.63606841827522
