41
-59.88981718
 N         -3.0102174778        0.0984598826        1.1734154391
 N         -0.5072627080       -0.9877199734       -0.4490756162
 C          0.5667308726       -0.6056086398       -1.0980917677
 N         -0.0190287057        1.2694166690       -1.8480126952
 N         -2.8600798633       -1.0023722411       -1.0000181941
 C         -3.5825970624       -0.8863345824        0.2323027375
 C         -1.6234425210       -1.7275073629       -1.0116620846
 H          0.6966307284       -0.8758394699       -2.1307264437
 H          1.2589122990        0.0354247542       -0.5923008701
 H         -4.5926912300       -0.5462681733       -0.0137915677
 H         -3.6521441566       -1.8876222719        0.6757345361
 H         -1.7683122101       -2.6531714244       -0.4444073104
 H         -1.3762567236       -1.9806121217       -2.0461740904
 H         -2.2265817363       -0.2889200951        1.6932381502
 H          0.8353751258        1.8076108342       -1.7351582885
 H         -3.7104474822        0.3721083821        1.8533902322
 H         -0.5677608816       -0.7229133986        0.5383321018
 H         -0.7535163061        1.6723122169       -1.2703504009
 H         -2.7843665401       -0.1164824070       -1.4824385961
 H         -0.3106231683        1.3402891662       -2.8098160483
 H         -0.4273037642        2.4131078549        0.6148841217
 O          0.4795362523        2.4286150079        0.9982520018
 H          0.4996999394        3.1629633869        1.6163447367
 H         -2.4005251427        1.4357604107        0.4260668786
 O         -1.9897310514        2.2522066988        0.0005772401
 H         -2.6477829504        2.9486149076        0.0394949754
 H          1.8896464319        2.2244385049       -0.0147121377
 O          2.5513835920        2.0532303065       -0.7149728329
 H          3.0818328663        2.8480892399       -0.8023818880
 H          2.6908209741       -1.5180456280       -0.7435760668
 O          1.8437830903       -2.0307740060       -0.6911317762
 H          1.7528213988       -2.2097825882        0.2635232766
 H          3.4369697804        0.5148660484       -0.5378794500
 O          3.8174092118       -0.3703967996       -0.3626930633
 H          4.6430129980       -0.4210995502       -0.8491157629
 H          3.1146462497       -1.0821430305        1.4743682683
 O          2.3884996767       -1.5537469830        1.9053819989
 H          2.7734302458       -2.1132132421        2.5835197408
 H          0.2391083967        0.7935010213        1.8619132118
 O         -0.0376480132       -0.1034985773        2.1072804377
 H          0.7732532954       -0.6133918928        2.2435778943