12
 energy: -16.886130872915 gnorm: 0.000201908344 xtb: 6.6.1 (8d0f1dd)
C            0.16946197781452       -0.96054846268524       -0.09974306594613
H            0.79261071895248       -0.22971189663904       -0.59418352053736
H           -1.33134099447788       -2.11043406833565       -0.38620087146281
H            0.56581809789240       -1.52214171383352        0.73344362341051
O           -0.66337550604756        0.25074242456643        1.04018225186177
H           -0.00043284109160        0.76440862577456        1.52943567809227
H           -1.21023995392452        0.85505941801960        0.51063449580310
N            1.69189458934068       -2.31456308199566       -1.15769143256072
H            1.76846947792556       -3.25211282038879       -0.78383460471952
H            1.38203626099719       -2.38890478557646       -2.11869513596735
H            2.61913994773051       -1.90887610772128       -1.16010296469350
O           -0.82931805811489       -1.38513274818511       -0.79887569428157
