12
 energy: -16.886135290363 gnorm: 0.000196064959 xtb: 6.6.1 (8d0f1dd)
C            0.17015494014206       -0.96189368256761       -0.10120041395651
H            0.79374441718316       -0.22934992850265       -0.59246266236552
H           -1.33149488821468       -2.10962205080009       -0.39159346960246
H            0.56361940275025       -1.52383641164355        0.73306591814893
O           -0.66523883064729        0.24958678949791        1.04050091799512
H           -0.00314919887981        0.76245779462011        1.53158145553643
H           -1.21096267592767        0.85493391707655        0.51112031915752
N            1.69283691907120       -2.31380683929003       -1.15674186897247
H            1.76725692807520       -3.25183867761361       -0.78370680638960
H            1.38590427534974       -2.38635497901250       -2.11880512361589
H            2.62022624056064       -1.90848870751683       -1.15521866272592
O           -0.82817381246555       -1.38400244124642       -0.80217084421138
