8
 energy: -12.876990142472 gnorm: 0.000616533362 xtb: 6.6.1 (8d0f1dd)
C            0.59480124178105       -1.50474303545218       -0.10439820561830
H            0.06729380543992       -0.43703767734403        0.12595482153489
H           -0.26545812167329       -2.16208326829034       -0.24683470459545
H            1.16929676872512       -1.69087028436805        0.80539749484514
O           -0.60371786701689        0.93704708016666        0.44141574495563
H           -1.45238160598564        0.74173148930720        0.86496200546741
H           -0.03501860687954        1.40879359674382        1.06706720235373
Cl           1.52844390160918       -1.33451016576329       -1.45712236494302
