16
 energy: -17.884848832094 gnorm: 0.000884889476 xtb: 6.6.1 (8d0f1dd)
C           -2.10209737313998       -0.17018528392405       -0.41378490070020
C           -1.28639680615682       -0.15706082753643       -1.63301124099163
C            0.04114553440470       -0.20710391329663       -1.53323743834430
C            0.66446843261264       -0.26492110552788       -0.20639006599161
H           -1.89584817324186        0.66049911088438        0.25380364380909
H           -3.16605001486566       -0.28347321118380       -0.58345262617512
H           -1.78419124431253       -0.17847729402518       -2.59143440615079
H            0.67316783800831       -0.27060706643298       -2.40694990653258
H            1.73000756121827       -0.46067164286440       -0.21743492456284
H            0.42989781235155        0.59361893622598        0.41523896182545
C           -1.58193387278200       -1.60141327085016        0.53811469870666
C           -0.09453617723463       -1.62990305611969        0.68010413331311
H           -2.10449910724136       -1.49613508306299        1.48211263551622
H           -1.96977105014580       -2.44218602709911       -0.02548360202648
H            0.24347336789905       -1.49664683115607        1.70160421808790
H            0.35606165462548       -2.51111991203003        0.23811378121744
16
 energy: -17.842492252546 gnorm: 0.000145258631 xtb: 6.6.1 (8d0f1dd)
C           -2.05710200259339       -0.15329557239175       -0.38025585140876
C           -1.28662250440172       -0.15099699317224       -1.60681864967717
C            0.06102369038614       -0.17107026241700       -1.55227408404262
C            0.74008898349276       -0.11350284012832       -0.30261538652235
H           -1.78256850259059        0.61897510655936        0.32913274733810
H           -3.13094355708103       -0.20365904949898       -0.51751422164594
H           -1.80225541735665       -0.29620864865001       -2.54471483789007
H            0.64032344387407       -0.35026274001422       -2.44836043437926
H            1.79569861487148       -0.33272765636137       -0.28321288292855
H            0.42344694243687        0.62599069094541        0.41505759307692
C           -1.60939969189446       -1.64835427919278        0.51056954371308
C           -0.17697539968778       -1.73586538475820        0.76196295151855
H           -2.20632101366123       -1.54852666912265        1.41059005161251
H           -1.98850944592073       -2.43499115534396       -0.13197985317773
H            0.17078288641683       -1.48230746410895        1.75015060795919
H            0.36223135570955       -2.53898356034419        0.28819566745388
16
 energy: -17.815738748107 gnorm: 0.000543921612 xtb: 6.6.1 (8d0f1dd)
C           -2.01941329485386       -0.15270197033109       -0.35816828718864
C           -1.28332696442753       -0.15414576985547       -1.57435971012720
C            0.09533763123113       -0.14416198345848       -1.55249280679521
C            0.82125020764126        0.02973163754491       -0.39445712637562
H           -1.70373897198537        0.57016941037372        0.38347395994233
H           -3.09749869032504       -0.16807866675366       -0.47062546956006
H           -1.79164800208051       -0.41906759005569       -2.49014720072817
H            0.62720316746699       -0.40265123065288       -2.45974275654839
H            1.88200369998627       -0.15303285015757       -0.38112218335321
H            0.42708452948494        0.57806459340875        0.44049012448419
C           -1.64679151146966       -1.68477587094744        0.50753999585362
C           -0.27816732784097       -1.84916842947304        0.83140439189912
H           -2.29564165986855       -1.53755125120367        1.36387641197161
H           -2.03974640330047       -2.42365134550150       -0.18143383872186
H            0.11043349105643       -1.48832797723378        1.76579651587613
H            0.34555848128548       -2.51643718370199        0.26788094037142
16
 energy: -17.805185434620 gnorm: 0.000558530995 xtb: 6.6.1 (8d0f1dd)
C           -1.97766059333046       -0.16868723312007       -0.32464412306766
C           -1.26917321036926       -0.17350776392888       -1.53787568053137
C            0.13116777507091       -0.10984065056151       -1.57737295719692
C            0.91916158515671        0.13660970945534       -0.50294456226728
H           -1.62248953091892        0.51314837542136        0.43699628792796
H           -3.05700051783877       -0.14432560444717       -0.42116625663059
H           -1.78296362650648       -0.49239347701130       -2.43398269065630
H            0.60813876836985       -0.34401770350059       -2.52135735234864
H            1.98951611189328        0.04484036119234       -0.56590827535304
H            0.52814134245787        0.49854665645744        0.42918092237089
C           -1.70909497783471       -1.73621003361679        0.51829518432102
C           -0.39453283652247       -1.94462483077205        0.93283814337507
H           -2.41877623300946       -1.56957083834077        1.32104378588782
H           -2.07849017693843       -2.43572958042892       -0.22286809543085
H           -0.02227925829017       -1.50683679490911        1.84150569408704
H            0.30923376061029       -2.48318706988947        0.32617293651305
16
 energy: -17.800835170247 gnorm: 0.000645556114 xtb: 6.6.1 (8d0f1dd)
C           -1.92445129304756       -0.19938670692065       -0.28973971589693
C           -1.24007998478556       -0.20616193603912       -1.50895115917752
C            0.16037861442616       -0.04946529337676       -1.62700724581930
C            1.00443597547654        0.24376426075614       -0.61892752689823
H           -1.53321187233041        0.45391619748702        0.47879818553690
H           -3.00239480041627       -0.13443932638085       -0.37413515810086
H           -1.76789999672719       -0.55156145391107       -2.38770068692711
H            0.57630245020684       -0.20289152602864       -2.61548678450515
H            2.06806998393202        0.28422758759681       -0.77506533539888
H            0.66183071800687        0.44480728957689        0.37989818255631
C           -1.77175271884553       -1.79256164161880        0.53489588302956
C           -0.50619270034262       -2.03298987210038        1.04615863970873
H           -2.53994269582129       -1.61856586092711        1.28011872269800
H           -2.09904628050635       -2.46348505989824       -0.25096098776972
H           -0.18879242206671       -1.57996190683743        1.96930001406018
H            0.25564540487122       -2.51103122941268        0.45671793385311
16
 energy: -17.842492180378 gnorm: 0.000711022449 xtb: 6.6.1 (8d0f1dd)
C           -2.15502918027617       -0.02326790024648       -0.53352888039961
C           -1.29046819356190       -0.12737561054605       -1.65952336502895
C            0.04735971119648       -0.19098499355106       -1.49922700150355
C            0.61129224659299       -0.23617644380265       -0.16578678633243
H           -1.91238517562839        0.69794937646797        0.23015742130132
H           -3.21171247802130       -0.17724640301442       -0.68415287689589
H           -1.72990183432093       -0.27338781567680       -2.63739300517797
H            0.69536508567107       -0.37125035934958       -2.34431815334914
H            1.68811924399588       -0.35289869160297       -0.13064156950021
H            0.27482246984780        0.55397127037650        0.49552509774008
C           -1.52069925715537       -1.69521741442498        0.65336726556289
C           -0.06386904451927       -1.69760442776820        0.63272598079605
H           -2.00436226946102       -1.41692441109475        1.57558644190851
H           -2.02658333337754       -2.46520456332293        0.09527800718528
H            0.38776961508533       -1.63188616381015        1.61657204729397
H            0.36318077593243       -2.50828192663370        0.05327233739959
16
 energy: -17.818080211225 gnorm: 0.000408208918 xtb: 6.6.1 (8d0f1dd)
C           -2.11206827390039       -0.00394639040925       -0.49415115796595
C           -1.30772157266380       -0.11976958638234       -1.61646340466540
C            0.07108688961315       -0.16489878111744       -1.50691786518527
C            0.69407852357519       -0.09479647593064       -0.27132196763856
H           -1.80085686995938        0.61995638392199        0.32589249772138
H           -3.18066678831565       -0.10707127452631       -0.60161657626362
H           -1.76081102689947       -0.39216000449519       -2.56016439237001
H            0.64844815959808       -0.47177212646128       -2.36864556539263
H            1.75716425450373       -0.26809848472706       -0.20916734100562
H            0.29911364057643        0.55376818046985        0.49157706826475
C           -1.54102673326779       -1.75594410308450        0.61067844209610
C           -0.15522189914340       -1.79798276667267        0.72566714589992
H           -2.13022846792697       -1.45704710801822        1.46147947108362
H           -2.02773707309184       -2.42619389823207       -0.07761411245643
H            0.30228476920307       -1.52834405721524        1.66291183572641
H            0.39706085009910       -2.50148598511941        0.12576888315108
16
 energy: -17.811168020847 gnorm: 0.000143239672 xtb: 6.6.1 (8d0f1dd)
C           -2.07894457204452       -0.00914138340283       -0.46595989127632
C           -1.30839376362678       -0.13534996955592       -1.58102272558440
C            0.10594285132316       -0.14601526129393       -1.51774312412904
C            0.79658087044582        0.03107681297187       -0.37132890486960
H           -1.73074109766310        0.56115668753427        0.37693847771147
H           -3.15155114499959       -0.09400927780418       -0.54630788865275
H           -1.76372076003161       -0.47129003810189       -2.50302113929915
H            0.63513136159724       -0.46923288082756       -2.40495209922428
H            1.86278183587068       -0.12015663870191       -0.34014421066058
H            0.36806784633544        0.51294130546713        0.48690456065359
C           -1.59375741109404       -1.80641127664496        0.61003373131953
C           -0.25924816482421       -1.89804638408908        0.81721071101172
H           -2.23959728145954       -1.46700601877198        1.40307310786702
H           -2.06092119882968       -2.42201837126673       -0.14073704404377
H            0.20068551631321       -1.50169789364245        1.70520812077960
H            0.37058349468772       -2.48058588987008        0.16976127939706
16
 energy: -17.810221659946 gnorm: 0.000846989872 xtb: 6.6.1 (8d0f1dd)
C           -2.03304244612294       -0.02912391618734       -0.43179328475956
C           -1.29017355133485       -0.16197027700428       -1.55356587966987
C            0.14047674376262       -0.10255039924365       -1.56129813832488
C            0.89926626228700        0.14341768069399       -0.48668241048713
H           -1.65579977450397        0.51780375962525        0.41431938705248
H           -3.10747536453756       -0.10449527546197       -0.48907492423335
H           -1.76051252248935       -0.52325884748071       -2.45873639558622
H            0.62356361247015       -0.36346440028113       -2.49446296847529
H            1.97319601700114        0.08286930961442       -0.53536167918909
H            0.48789591481522        0.46980052325817        0.45002308451686
C           -1.66995971809956       -1.86484748187688        0.62864541270252
C           -0.36757583290779       -1.98306296067250        0.92590080171430
H           -2.36576826898151       -1.51553846595367        1.37432534394015
H           -2.09597027014083       -2.44906651405394       -0.17084600072952
H            0.05383438034534       -1.54097913795521        1.81244548629502
H            0.32094320043690       -2.49132007502060        0.27407512623380
16
 energy: -17.809776047354 gnorm: 0.000535201380 xtb: 6.6.1 (8d0f1dd)
C           -1.97160523998599       -0.05897513877020       -0.39858358726074
C           -1.25761163894071       -0.18433529897442       -1.53567355843285
C            0.16977542946221       -0.02643893174587       -1.62957535006826
C            0.98935520158937        0.24058925231274       -0.61081024436013
H           -1.57183145129359        0.47841834442178        0.44377900784776
H           -3.04629374654461       -0.13439985911978       -0.43406893252635
H           -1.74798164509968       -0.56264560848148       -2.42325530720665
H            0.59306710292715       -0.17629106743654       -2.61513880318480
H            2.05511895359791        0.30225653482587       -0.74932505165760
H            0.63129578807055        0.40743358515361        0.38885047662236
C           -1.74579335173999       -1.92220998899171        0.65239686491911
C           -0.47891721674932       -2.06443780126445        1.05368560886715
H           -2.49510662475727       -1.57247138169859        1.34441068676752
H           -2.11292228437240       -2.48159272559397       -0.19242641971143
H           -0.12057649688681       -1.62006145365232        1.96727206377281
H            0.26292560272381       -2.54062493898458        0.43637550661229
16
 energy: -17.815738608001 gnorm: 0.000807552679 xtb: 6.6.1 (8d0f1dd)
C           -2.21345661228093        0.12070394368150       -0.63692562439350
C           -1.32284506354282       -0.09848729806360       -1.66516073957673
C            0.03847501784859       -0.19009939536522       -1.46606552662925
C            0.56924865837095       -0.23016359145247       -0.14786399683161
H           -1.92642115506433        0.64715788801531        0.25397187873734
H           -3.27157502773560        0.00172750480889       -0.79517147396554
H           -1.71671092119465       -0.32631223350851       -2.64778523082641
H            0.67054564925553       -0.48591526380847       -2.29085456358770
H            1.64872370690968       -0.30979054932186       -0.08670530021500
H            0.18216253709824        0.51127472874225        0.53974034848493
C           -1.43764440401523       -1.81719740730303        0.73581839809115
C           -0.02746878000300       -1.73563172547399        0.63522168441722
H           -1.94802000205547       -1.43199550089943        1.59920585941504
H           -2.00215061488767       -2.44673251864119        0.07483423166329
H            0.48450131201341       -1.62698830458442        1.58521665916486
H            0.42553408128329       -2.49733675482568        0.01043635705167
16
 energy: -17.811167549370 gnorm: 0.000879117029 xtb: 6.6.1 (8d0f1dd)
C           -2.19104672294740        0.12437121018036       -0.60972907315533
C           -1.33840079133104       -0.09832912902840       -1.63249940693830
C            0.06565838714592       -0.17476015910405       -1.46926427033752
C            0.65489031843599       -0.09364055626312       -0.24477852884646
H           -1.87555846885461        0.58214144892592        0.30867787095474
H           -3.25596531349134        0.03834212108605       -0.74853986021181
H           -1.73769765437379       -0.39223617767565       -2.59493128704087
H            0.64088613969778       -0.54125570742355       -2.30936589023167
H            1.71929585157627       -0.24511393512708       -0.15408596052266
H            0.21245809225870        0.49935205038318        0.53599226245686
C           -1.45860487490255       -1.86281505155013        0.71830157071811
C           -0.10504243487452       -1.85467748391007        0.72714591370828
H           -2.02909432508072       -1.43539277967277        1.52446247502806
H           -2.01175613590442       -2.40757605454916       -0.02505363407844
H            0.42589844429924       -1.55368835372552        1.61537800755626
H            0.43697787034600       -2.50050792054597        0.05620277194077
16
 energy: -17.815005639105 gnorm: 0.000937253448 xtb: 6.6.1 (8d0f1dd)
C           -2.15770729529059        0.13024072853719       -0.57268083996374
C           -1.33811267374970       -0.11661659753887       -1.60201311113656
C            0.09240607875560       -0.16547829474876       -1.49347668085680
C            0.76250013959703        0.03183358102578       -0.35147913748584
H           -1.80923182257505        0.56242493028526        0.34649110136476
H           -3.22729457429991        0.06380274043977       -0.68539693538900
H           -1.75710574805115       -0.44023453310738       -2.54600407331393
H            0.62544882315382       -0.52338754040280       -2.36484733405550
H            1.82968503948235       -0.10842244298376       -0.30197845356414
H            0.31038696829353        0.49412429761003        0.50565390728257
C           -1.52224611144965       -1.92111880965221        0.70788929350144
C           -0.19749426513072       -1.94958741578346        0.83360607748962
H           -2.15483277259631       -1.48679863194973        1.46310393726148
H           -2.02310957002343       -2.44747003394639       -0.08579349817923
H            0.29798054478685       -1.53623781459991        1.69528215330849
H            0.42162562109759       -2.50286064118423        0.14955655473749
16
 energy: -17.817703212227 gnorm: 0.000561614440 xtb: 6.6.1 (8d0f1dd)
C           -2.10579602055051        0.11912802926920       -0.53600812715402
C           -1.31551364797347       -0.14046787952207       -1.57967262597985
C            0.12814831373484       -0.11799060012919       -1.54658785356138
C            0.86699150747427        0.14530334771152       -0.46954014172363
H           -1.73086574011840        0.55823121694678        0.37011704727067
H           -3.17696088105808        0.03882646931875       -0.61518710617283
H           -1.75791703918129       -0.49504176511292       -2.50187880080660
H            0.62205505038911       -0.40935468397355       -2.46496796345888
H            1.94192769071844        0.08737059009138       -0.50054686885954
H            0.43860118680108        0.47726966216382        0.45789342682485
C           -1.61034862254528       -1.98332829360236        0.72375666182391
C           -0.30590679938163       -2.03309992261398        0.94550149522016
H           -2.29063374173290       -1.54535418644624        1.43434297385163
H           -2.06021533262512       -2.49565190956245       -0.10947884479711
H            0.14203445982294       -1.58468425184224        1.81647674231377
H            0.36729799823385       -2.53694230069739        0.27369294621449
16
 energy: -17.818574951374 gnorm: 0.000576619838 xtb: 6.6.1 (8d0f1dd)
C           -2.03398264799198        0.09094558445260       -0.50127577437998
C           -1.28148092223165       -0.14835417163990       -1.57541727531205
C            0.16008176357052       -0.02013292505876       -1.63631609027535
C            0.95985948829336        0.23016804578418       -0.60312180405917
H           -1.63202188088489        0.54517831650154        0.38630797978803
H           -3.10358888094213       -0.02848877848277       -0.53247428173613
H           -1.75083010410156       -0.52939659189171       -2.47376410874761
H            0.59835454749983       -0.17984973934522       -2.61376817679289
H            2.02895040886363        0.28315823100109       -0.72004362474326
H            0.58222496456417        0.39312024496179        0.39024762738149
C           -1.69975909975752       -2.04599168483542        0.75360343800011
C           -0.42275103465649       -2.10827034835032        1.08807203025491
H           -2.43689857406749       -1.61542506628932        1.41056356789436
H           -2.07710293178045       -2.53911355428810       -0.12584323594170
H           -0.04771800735382       -1.66030805996436        1.99374166016448
H            0.30956129297507       -2.58302598055729        0.45740102950801
16
 energy: -17.805186133815 gnorm: 0.000777736845 xtb: 6.6.1 (8d0f1dd)
C           -2.28538655999409        0.23397642566289       -0.75801124896233
C           -1.35284104401880       -0.06141865648890       -1.69584762038789
C            0.01708236141314       -0.21100839207632       -1.43485984807701
C            0.52248990950616       -0.24585324340472       -0.12442089248983
H           -2.02673903110268        0.57143839856774        0.22781494907744
H           -3.33546896215451        0.20823756395206       -0.99145873981127
H           -1.68724495922193       -0.26615606260019       -2.70558316556302
H            0.64615148303786       -0.56233632534571       -2.24049772607657
H            1.60279007977001       -0.28749912655440       -0.04781927481714
H            0.09258533065663        0.45884762420654        0.57524647311228
C           -1.34438629273220       -1.91577723426496        0.85810865698955
C            0.02895177690697       -1.79165880212336        0.65446168563113
H           -1.82503253414103       -1.45210919449079        1.70043472128303
H           -1.97836287171021       -2.41114121025228        0.14726777183948
H            0.61391230603018       -1.66860119593144        1.55932417024448
H            0.46439738975475       -2.51472704685609       -0.02624695099218
16
 energy: -17.810228353065 gnorm: 0.000412169066 xtb: 6.6.1 (8d0f1dd)
C           -2.27105416584088        0.23242776368349       -0.74412720329010
C           -1.36263220889943       -0.05438078615788       -1.68430409259778
C            0.04158752029444       -0.19776810368456       -1.44477843482928
C            0.60028341633411       -0.10673232934449       -0.21720734215437
H           -2.00081236739610        0.52999481157983        0.25161409426348
H           -3.32418691850606        0.23795164720509       -0.96926093797296
H           -1.70106797638715       -0.28200557340137       -2.68731030759911
H            0.63037951022601       -0.58782114933677       -2.26460547796191
H            1.66372336423169       -0.24484569194804       -0.10220101311367
H            0.12423812685596        0.46162946417304        0.56224965915079
C           -1.37056182190721       -1.94806506050139        0.85490273933902
C           -0.03393055295267       -1.91945122389644        0.75124945658399
H           -1.88523024173360       -1.47583756864832        1.67451861274181
H           -1.98966821376366       -2.41098628864820        0.10718004942619
H            0.56808399433347       -1.61833676938369        1.59330453258207
H            0.46374691711161       -2.53155961969028        0.01668862643105
16
 energy: -17.817702294835 gnorm: 0.000950203134 xtb: 6.6.1 (8d0f1dd)
C           -2.23951164038080        0.23967953007524       -0.71580813043037
C           -1.35706946971050       -0.07183180019942       -1.66447087944364
C            0.06960781998875       -0.18241323934036       -1.46918019574049
C            0.69872432366588        0.03420968123631       -0.31230579322894
H           -1.94369232755128        0.54762485768622        0.26988231606313
H           -3.29730163534345        0.24885680404830       -0.91703154596171
H           -1.71656075542072       -0.33475513667602       -2.65146303469536
H            0.62988934784284       -0.56750260107209       -2.31207589263360
H            1.76207080590947       -0.11087445750370       -0.22054107449906
H            0.21175162444015        0.49844339724667        0.52539762943975
C           -1.43724833185628       -2.00035909898670        0.85324393337374
C           -0.11366552050889       -2.02932294140124        0.84288348641807
H           -1.99123282910935       -1.51977170844518        1.64260054782114
H           -2.02374292953530       -2.46604092456913        0.08029794368826
H            0.46881015318274       -1.62884792517869        1.65555153998152
H            0.43206974638652       -2.57288091492052        0.09093211084725
16
 energy: -17.821167924432 gnorm: 0.000645160458 xtb: 6.6.1 (8d0f1dd)
C           -2.17941044602801        0.25720185861742       -0.65986121505292
C           -1.34387189431669       -0.08913849065775       -1.63531059891933
C            0.10117062214682       -0.13669978396889       -1.53246801059216
C            0.80990048044951        0.14328767235181       -0.44182395647266
H           -1.83466882417225        0.61426908339865        0.29349738949811
H           -3.24702073657017        0.23643363845445       -0.80145914922851
H           -1.75010176834511       -0.41091730213410       -2.58615514814343
H            0.61687250331065       -0.47697643479935       -2.42178247269653
H            1.88305059334808        0.05440645955778       -0.43204615691830
H            0.35688052493904        0.51316825725630        0.45999466710321
C           -1.53177843896649       -2.08225594215023        0.83378673686634
C           -0.22020533991012       -2.10577735180912        0.97388027553924
H           -2.17629883824167       -1.61961647200739        1.56247169601050
H           -2.02331812193190       -2.55297612287051       -0.00045375387474
H            0.27121743497870       -1.66340205079085        1.82425874051048
H            0.42048063130993       -2.59679349644955        0.26138391737016
16
 energy: -17.822115502561 gnorm: 0.000963961667 xtb: 6.6.1 (8d0f1dd)
C           -2.11079377336332        0.22813413303019       -0.63110856506317
C           -1.30119583778695       -0.11061539090479       -1.62993858643351
C            0.14865443938926       -0.03516339214592       -1.61219508369184
C            0.90095385320040        0.26130721165932       -0.55716087534766
H           -1.74353210357433        0.64988856692453        0.28720740010903
H           -3.17966048139821        0.13109411405377       -0.71570285543779
H           -1.72843566441483       -0.49942625923190       -2.54572780245563
H            0.63228169410837       -0.27003735886206       -2.55237614174428
H            1.97538419850426        0.28243832289540       -0.62147512366037
H            0.47661233090699        0.49707205875341        0.40260593335173
C           -1.63685924144777       -2.14232468140763        0.87878631453860
C           -0.33500873663741       -2.19903407690043        1.07361990757274
H           -2.29848906926594       -1.65848080091487        1.57805427794750
H           -2.10569541072793       -2.60553329944799        0.02720385038672
H            0.13398244585069       -1.75177482102324        1.93537837259318
H            0.32469973865679       -2.69333080447913        0.38074193833124
16
 energy: -17.800836579176 gnorm: 0.000625216524 xtb: 6.6.1 (8d0f1dd)
C           -2.34540584536030        0.34685107976730       -0.88295699881348
C           -1.37226099556325       -0.00045995505970       -1.74719943036763
C           -0.01986747233514       -0.24050894053810       -1.41064340157480
C            0.46289122711357       -0.27180316555892       -0.09868059245330
H           -2.15216665558134        0.53166394314630        0.15828142729097
H           -3.36727961442220        0.44844336089359       -1.20338505226882
H           -1.63556745135307       -0.13319639155176       -2.78959859598635
H            0.61750112551950       -0.62288068313832       -2.19597896593265
H            1.54268697428161       -0.27394674280348       -0.01208675476707
H           -0.00327000555254        0.40707176757267        0.60268799165726
C           -1.25615480057343       -2.01234390863749        0.98408400847520
C            0.08623395676262       -1.85094485900202        0.67974826461616
H           -1.68648739925221       -1.54127289221524        1.85055652002909
H           -1.94509005100963       -2.43660423746624        0.27680412844049
H            0.73698479901225       -1.72468997890419        1.53779893563698
H            0.49015059031347       -2.54116487450523       -0.05151852298301
16
 energy: -17.809774538948 gnorm: 0.000584216251 xtb: 6.6.1 (8d0f1dd)
C           -2.33084987671055        0.34428592797479       -0.87217005407797
C           -1.37860686787582        0.02720504356917       -1.75140691780261
C            0.00335122818175       -0.22043964079884       -1.43472026951529
C            0.53548507233054       -0.13670023074925       -0.19859028902776
H           -2.12582393457767        0.48605892353547        0.17346303704658
H           -3.35583836473192        0.47090167897218       -1.17676784631416
H           -1.64888321695384       -0.09476645171535       -2.79322403745044
H            0.60315095321510       -0.63084022671933       -2.23682208821531
H            1.59537367332141       -0.27973529439429       -0.06512252147316
H            0.04228965407185        0.42748724178357        0.57357764835198
C           -1.28800237700676       -2.04270517280869        0.98643016031830
C            0.03252893319152       -1.97871181473100        0.79197868116426
H           -1.75881654510133       -1.57502060505297        1.83494614074158
H           -1.94958916904652       -2.47726762340564        0.25707498532248
H            0.68218458089128       -1.67245220309740        1.59606157479526
H            0.49494463880018       -2.56308603036239        0.01320475713557
16
 energy: -17.818569213087 gnorm: 0.000560321318 xtb: 6.6.1 (8d0f1dd)
C           -2.30365126273268        0.33309333143298       -0.85744084387527
C           -1.37013116236975        0.03430005400142       -1.75695719035188
C            0.03264261365678       -0.18990316467192       -1.47341107919661
C            0.62354484015646        0.00645483192761       -0.29468731329492
H           -2.07595798588492        0.46628988146457        0.18483464832468
H           -3.33517302770212        0.45950596323127       -1.13857617375481
H           -1.65971373011615       -0.09421284021708       -2.79264910001396
H            0.60916309455999       -0.60689658579148       -2.28968346726239
H            1.67465110249202       -0.18358429473411       -0.15933930346566
H            0.11934023849391        0.49296947152757        0.52071902560522
C           -1.35082703314980       -2.08641080364578        1.00762398869384
C           -0.03428028196730       -2.09384121884786        0.89235224510184
H           -1.84831255888947       -1.61448217680425        1.83908417927626
H           -1.99093714196809       -2.52651587984157        0.26195463189989
H            0.60392054605394       -1.69896114219439        1.66537035998794
H            0.45862013136681       -2.61359190483616        0.08871835332529
16
 energy: -17.822121564230 gnorm: 0.000708359736 xtb: 6.6.1 (8d0f1dd)
C           -2.24858728767125        0.35344865108140       -0.80861355636427
C           -1.35835660725105        0.01474874309649       -1.73563000908381
C            0.06888842129176       -0.14747915759846       -1.52549820779297
C            0.72915314696970        0.13873557900820       -0.40763973497161
H           -1.96784891577107        0.56065898051927        0.20873060578891
H           -3.29674095978651        0.43935452516452       -1.03958876987564
H           -1.70055988654172       -0.18759009969772       -2.74316414898599
H            0.61305551226887       -0.55887133290308       -2.36670766829058
H            1.79063329300385       -0.02112248254552       -0.32524834504491
H            0.24748389857185        0.57969051728213        0.44678685614664
C           -1.44569019578986       -2.16623008711172        0.99330865254169
C           -0.12813592701589       -2.18687623993310        0.99956773500532
H           -2.01426083319481       -1.70485503645501        1.78401857692793
H           -2.01942417056544       -2.60736271260791        0.19557014905434
H            0.44575893339336       -1.75714914895043        1.80410352353729
H            0.43752996008851       -2.66488717634806        0.21791730240705
16
 energy: -17.822927513150 gnorm: 0.000851140413 xtb: 6.6.1 (8d0f1dd)
C           -2.17618261277760        0.38880474254899       -0.74201068066940
C           -1.34308000177926       -0.03420312354911       -1.68663826668983
C            0.10684928809112       -0.06933277339783       -1.59742374461428
C            0.83411265250569        0.25087536809772       -0.53261455059315
H           -1.82929177688458        0.76957567609264        0.20242687849022
H           -3.24307656666242        0.37530417633209       -0.88553947954264
H           -1.75199889024809       -0.39696834669808       -2.62174627942458
H            0.61193008520471       -0.40318804757006       -2.49550019064072
H            1.90883246216168        0.19047643462520       -0.54664767768235
H            0.38936161226097        0.58627429494770        0.38766881047252
C           -1.54537329781218       -2.25147289538548        0.95240458955340
C           -0.23939307848472       -2.27107701487773        1.11892630753223
H           -2.20692381097390       -1.79246841585019        1.66966052869724
H           -2.01622128522876       -2.69596671338690        0.09169550229900
H            0.23393098837228       -1.82994304969412        1.98089659422809
H            0.41942261425385       -2.73247679023388        0.40235461958113
