%nprocs=1
# freq=noraman 
external="xtb-gaussian -P 4"

Simple test

0 1                                                                          
O            0.56812971135718        0.61003705183045        1.87309808232257
O            1.82455800385089        0.02973008401411       -0.15504454200279
O            2.68207944786880        0.90344185749411        3.08676027859028
O            3.91947773779735        0.60958076204578        0.98646757855465
H            1.58577374073228        0.77021380233826        2.54517839592220
H            1.13083224914057        0.30807632799481        0.82180574853033
H            2.91120053516567        0.30638927965731        0.35054529171915
H            3.36624934246774        0.77019638032379        2.07326715234031
H            0.19902388139942        1.48632123480212        1.73514129288497
H            1.80304925804232       -0.92772940416574       -0.23230047921703
H            4.17266107758555        1.48531807282045        0.68278741237462
H            2.82052095359277        0.10821021084466        3.60785130398102





