12
 energy: -20.228078982877 gnorm: 0.000693110452 xtb: 6.6.1 (8d0f1dd)
O            0.74590112421597        0.51876696163019        1.84980718505217
O            1.86305998097569        0.16574798135935       -0.01286164491099
O            2.63148620778019        0.95074118190036        2.89871570296377
O            3.75390953157505        0.51804338942725        1.05611811680826
H            1.64752115550666        0.74913954871407        2.44234532360068
H            1.23493679852232        0.32782594300635        0.87949451547081
H            2.84972224837045        0.32749617711543        0.45343324903296
H            3.26201293655458        0.74879903412491        2.01625828901608
H            0.13099403889122        1.26020438642368        1.81237061487025
H            1.76781275492791       -0.72323405273190       -0.37320998425870
H            4.27085323145975        1.25897542282062        0.71993213864599
H            2.82534593022272        0.35727968620925        3.63315400970727
