12
 energy: -20.323702092286 gnorm: 0.000822382643 xtb: 6.6.1 (8d0f1dd)
O            0.56699317753396        0.60920676733350        1.87218371820458
O            1.82545074854605        0.03027684311723       -0.15623510028493
O            2.68106407104462        0.90466074915477        3.08762103027126
O            3.92072922622019        0.60873495333071        0.98766345059628
H            1.58475824234227        0.77032319456787        2.54515231649977
H            1.13090810199077        0.30788072406904        0.82064707309480
H            2.91222347918817        0.30610741727414        0.35067826374760
H            3.36619765610661        0.77030918842565        2.07444053170522
H            0.19747766453196        1.48528124093616        1.73415257928960
H            1.80382166198960       -0.92711577182491       -0.23416827126636
H            4.17466025862108        1.48422144357497        0.68396118066667
H            2.81927165088529        0.10989891004047        3.60946074347234
