12
 energy: -20.312309405394 gnorm: 0.000430024684 xtb: 6.3.2 (452493c)
O         0.57084123282894    0.57815829318444    1.88007350400058
O         1.82361984002227    0.06200941180683   -0.16261135285643
O         2.67918507008767    0.93573481442002    3.07805595977957
O         3.92139934219237    0.57719368196299    0.99557463472792
H         1.58415928493447    0.77111085296995    2.54643496578364
H         1.12849999684425    0.30663211582778    0.81991117162597
H         2.91379541986892    0.30536838180228    0.34814499882013
H         3.36862103074908    0.76951476320635    2.07546470666826
H         0.15846416291689    1.43541840473156    1.75792143207838
H         1.78939948532826   -0.88807436225793   -0.28903028250374
H         4.21918167817024    1.43506554171871    0.68694356136618
H         2.82638939505974    0.17165376062669    3.63867421650588
