12
 energy: -20.323704372001 gnorm: 0.000919297065 xtb: 6.6.1 (8d0f1dd)
O            0.56738545214002        0.60999439196734        1.87376111820930
O            1.82444796325678        0.02980283471284       -0.15534476602106
O            2.68214853042826        0.90572061355427        3.08766977846185
O            3.92059050663581        0.60791730341471        0.98729993376791
H            1.58496381070621        0.77099048945759        2.54518531866296
H            1.13106291024798        0.30784609877505        0.82048353010886
H            2.90874694641737        0.30474096428019        0.34884533252382
H            3.36864782796912        0.76947717284744        2.07045589907346
H            0.19811235341099        1.48622755377895        1.73620830975137
H            1.80245684688857       -0.92770629271377       -0.23320913047611
H            4.17513789092612        1.48348798974961        0.68428288785766
H            2.81985489996940        0.11128654017512        3.60991930407770
