8
 energy: -12.838374181606 gnorm: 0.000977841325 xtb: 6.6.1 (8d0f1dd)
C            0.47836065166600       -1.04824976255431       -0.35806962032464
H            0.65316438696261       -0.17148269475021       -0.98087450732795
H           -0.52952815899451       -1.44544565844715       -0.47322408075655
H            0.64804083734712       -0.77111749776252        0.72496298233364
O           -0.51314289694241        0.31717980198059        0.76883667429137
H           -1.19283298951581        0.09728839770298        1.43246051979397
H           -0.16159677502366        1.19498517185660        1.00459776807584
Cl           1.62079446050069       -2.21483002302599       -0.62224774208563
