8
 energy: -12.815638547443 gnorm: 0.000988152464 xtb: 6.6.1 (8d0f1dd)
C            0.30549799462884       -0.79268626408919       -0.10004573971976
H            0.71629199416673       -0.16224999726182       -0.87034605166190
H           -0.49709787255650       -1.45740437637343       -0.37141522031836
H            0.89360925046560       -1.00727254106017        0.77624016420747
O           -0.87249127608206        0.63037775498200        0.72006714416593
H           -1.28014919894431        0.17906727175654        1.47910124929960
H           -0.23990655243040        1.30325942918280        1.02630737608851
Cl           1.97750517675207       -2.73476354213667       -1.16346692806147
