16
 energy: -17.810228353065 gnorm: 0.000412169066 xtb: 6.6.1 (8d0f1dd)
C           -2.27105416584088        0.23242776368349       -0.74412720329010
C           -1.36263220889943       -0.05438078615788       -1.68430409259778
C            0.04158752029444       -0.19776810368456       -1.44477843482928
C            0.60028341633411       -0.10673232934449       -0.21720734215437
H           -2.00081236739610        0.52999481157983        0.25161409426348
H           -3.32418691850606        0.23795164720509       -0.96926093797296
H           -1.70106797638715       -0.28200557340137       -2.68731030759911
H            0.63037951022601       -0.58782114933677       -2.26460547796191
H            1.66372336423169       -0.24484569194804       -0.10220101311367
H            0.12423812685596        0.46162946417304        0.56224965915079
C           -1.37056182190721       -1.94806506050139        0.85490273933902
C           -0.03393055295267       -1.91945122389644        0.75124945658399
H           -1.88523024173360       -1.47583756864832        1.67451861274181
H           -1.98966821376366       -2.41098628864820        0.10718004942619
H            0.56808399433347       -1.61833676938369        1.59330453258207
H            0.46374691711161       -2.53155961969028        0.01668862643105
