8
 energy: -12.755300092433 gnorm: 0.000571977381 xtb: 6.6.1 (8d0f1dd)
C            0.49679261062620       -1.03025381295630       -0.19724940283345
H            0.81433038215439       -0.29271616149424       -0.92376897369564
H           -0.39613370995912       -1.61316157015587       -0.38621059446181
H            1.05347522394228       -1.16797202634398        0.72142060758957
O           -1.08203426086906        0.94740123712927        0.93896051536300
H           -1.64356100346330        0.61887560240233        1.65422336819320
H           -0.55848025346046        1.68786027744744        1.27396479363863
Cl           2.31887052702928       -3.19170581102951       -1.58489831979349
