8
 energy: -12.873654161579 gnorm: 0.000695181986 xtb: 6.6.1 (8d0f1dd)
C            0.45860210248285       -1.14356177087797       -0.59446707565956
H            0.69759262083684       -0.40335219692508       -1.35332029617954
H           -0.45084897149321       -1.71005228802996       -0.77549954249516
H            0.04291018035161       -0.34163617338097        0.38668550957793
O           -0.51994383019621        0.41411770956939        0.94988665096637
H           -1.01097898359763        0.03145265526353        1.70378010612183
H            0.04323692504368        1.15421737887046        1.25102497238482
Cl           1.74268947257196       -2.04285757948964       -0.07164833071649
