%nprocs=1
# freq=noraman 
external="xtb-gaussian -P 4"

conf

0 1
C         0.71999438019256    0.15734624737948    1.37492059802227
C         1.97777220453067   -0.47744456582013    1.10466761954514
C         2.77918862036204   -0.19891109683212    0.00768125757096
C         0.36782567478094    1.35767646174657    0.51282476062406
H         2.35399817032485   -1.17017957594838    1.84283899846651
O         3.85535261055783   -0.79940293548505   -0.23769662224717
C         2.35228585798553    0.94420587903091   -0.91979784845697
C         0.84917545395743    1.21632972666685   -0.93634765653589
C         0.56369312570831    2.53210472653711   -1.66888382300309
H         0.94149886689971    2.48309042439655   -2.68723936198638
H        -0.50644898285458    2.72097291233027   -1.70501474227031
H         1.04700478971391    3.36648000236659   -1.16580828569088
C         0.12430848145930    0.08048928994984   -1.66049200530889
H         0.37146779871246    0.10183286307201   -2.71947582208182
H         0.43224034817698   -0.87905867300421   -1.25807638794957
H        -0.95162407770076    0.17849512382585   -1.54707863836358
H         2.71713063754415    0.71985750749178   -1.92496184126889
H        -0.71270102567857    1.49692357127854    0.55081090059626
H         0.84841981188365    2.22216484196488    0.97396084265165
H         2.88961325877149    1.83351440420050   -0.57320094181220
O         0.49614545081276    0.49056769736745    2.74256496973887
S         1.35522630050738   -0.12732224163469    3.94567435057198
O         2.67054096913214    0.44224858112185    3.99046051277886
O         1.27041495837410   -1.56435050202725    3.93577019795657
C         0.35660569862404    0.52852100822143    5.27925368803173
H        -0.63350278104660    0.10292199909693    5.19530897078366
H         0.34161954402278    1.60289811184579    5.15958026437687
H         0.82980775126214    0.24508299899266    6.21081828309867
C         0.41261682854699   -2.95770142579285    1.38416415405254
N        -0.44779775764691   -1.98080568329613    1.67866294467500
H         1.16512117346241   -2.90459977221896    0.62280586793799
C        -1.22915708959720   -2.37747189156530    2.72335935766465
O        -0.50016395601072   -0.78566469809830    1.09282983769898
C        -0.82520230477246   -3.63280286694024    3.05464403856570
H        -1.99927242508059   -1.74903354215791    3.11916544895010
H        -1.18285183142860   -4.29301501205971    3.81837663401593
N         0.19558829508305   -3.97424902619373    2.22145672024497
C         0.93873125804202   -5.20599854589273    2.27855954397009
H         0.25001900873311   -6.05088250070827    2.30506492723981
H         1.58139463678780   -5.28449777837912    1.40417193008212
H         1.55913026685101   -5.21939104485983    3.17649135703620




