139
-301.73036114659
C 1.0118535644157924 -0.7967484968131336 -5.943728380036326
C 1.8454728451605416 0.3493741290298435 -5.669174685518004
C 3.05511465963509 -0.13494535658096596 -5.042392631997696
C 2.97133580233044 -1.5708507745214242 -4.933013992997909
C 1.7039821772659443 -1.97926212186193 -5.48057595154822
C 1.004557272432343 -3.027971461780608 -4.891557020825703
C -0.41804879922402965 -2.9165135929610684 -4.725307834612032
C -1.0904954347532902 -1.7828175802679584 -5.176695703364777
C -0.3682872231014495 -0.7043015082313286 -5.81455659166891
C -0.966517932471099 0.5500107295385954 -5.39826315678773
C -0.15704872770010297 1.6544710011254913 -5.122754660855527
C 1.2793393691981887 1.5565386779939583 -5.265457957235721
C 1.892722891796623 2.3262070815059293 -4.198692264922036
C 3.066019007552079 1.8552889463722155 -3.6016649958073064
C 3.6565410469638207 0.6061477944390561 -4.032139137780772
C 4.183598213628002 -0.08029394516266754 -2.874095284008543
C 4.10957560026046 -1.468249497169525 -2.7739189915030087
C 3.496728099243374 -2.2358347143034223 -3.829008457085476
C 2.7836707349497103 -3.3422832652812424 -3.2261804551217432
C 1.544891447772946 -3.7302907044065505 -3.7463385940038885
C 0.4536006020378313 -4.057626123606285 -2.858300804095596
C -0.7772758365221164 -3.538774661313125 -3.474044024603869
C -1.7760227416606056 -2.9972158497146704 -2.7118925761892543
C -2.445433162276357 -1.7907262465106724 -3.1321474259350075
C -2.131277908015538 -1.2093997685440674 -4.37365069415153
C -2.0602993377142753 0.22110956982561586 -4.510819296467361
C -2.271007171197081 1.008088933164248 -3.3898152880592662
C -1.4713714831195113 2.1332730639931974 -3.120620397400059
C -0.4197435555132586 2.4760635587927577 -3.9597020776093323
C 0.8362249103322583 2.892991030254627 -3.389777911740338
C 0.9614809043937524 2.9469901971042445 -1.9832785086959603
C 2.193908942498456 2.450180660883322 -1.3802041838290362
C 3.21245002739176 1.9214290863017445 -2.1621093354941774
C 3.9120293642080175 0.7352951200550435 -1.720735253647908
C 3.5911463968171695 0.1293249342438789 -0.5087942391602195
C 3.535446254811934 -1.314331172821379 -0.39736936350125757
C 3.7808772323072883 -2.0984048041143657 -1.5188330737302722
C 2.955619608761642 -3.2559723908527656 -1.7973467544166308
C 1.886234292511648 -3.5677970937503067 -0.9509299015442066
C 0.6266809218386657 -3.9922987583786615 -1.4944289326536755
C -0.5003118991153593 -3.6911854383651086 -0.5027753665865183
C -1.8686245448824441 -3.1360304214419648 -1.1930658658091058
C -2.2250158435442335 -1.690867062290684 -0.8397742917915595
C -2.755660901201071 -0.9953405237007015 -1.9897884135742039
C -2.7658583840367297 0.4639950389039537 -2.092800206645555
C -1.86305459540046 1.023178121208015 -1.0943885896216325
C -1.472253980336926 2.3536531917427443 -1.6270294902726798
C -0.12592271602710692 2.6776797698532304 -1.100809553638178
C 0.4386501054902008 1.9344619958271676 0.030777370079809404
C 1.865450585216122 1.8299810994633492 -0.12919930967278992
C 2.5499569036766934 0.6890739381967254 0.30900665390738613
C 1.854512000241881 -0.4094329990669575 0.9356898901165438
C 2.4554492106532493 -1.656320945718185 0.5016049865561132
C 1.6365838886741626 -2.757051629792528 0.2225027163532242
C 0.21020785030395725 -2.6745766069811694 0.4040684516411379
C -0.35621411867946484 -1.4884948218099394 0.7994371695097158
C -1.5829902332207069 -1.0158817127319575 0.1608385877049203
C -1.4468242013726675 0.4168515634441753 0.026592318124725355
C -0.20627768041974712 0.8550576752411647 0.6188561784795271
C 0.47235236616827336 -0.33067158926667056 1.0699052473607538
C -3.9620928875840744 1.79282101047124 -1.7133267326888593
C -4.82798943563611 1.3052392826883448 -0.6231238838212524
C -6.0979384085680035 0.8744261487484039 -1.1536936960055002
C -6.096280826780186 1.1539657841643094 -2.6057630830609537
C -4.893399802479489 1.9572570586386016 -2.837929967814752
C -4.918659565024358 3.057092673393909 -3.647297992828842
C -4.086622872645765 4.2041051877646085 -3.33681697667075
C -3.268989366970913 4.200163317805572 -2.226972273375712
C -3.0241045717455517 2.9871591665028894 -1.3957153327640794
C -3.174008114042533 3.531791193037841 -0.017268785722995835
C -3.89712193911762 2.893638782822329 0.9661427248492026
C -4.691780568306162 1.7205527562679481 0.675167124067917
C -5.8231291180919875 1.6973963835232269 1.6094209485539628
C -7.201881030620014 1.2650375354786099 1.017718593214857
C -7.234047598036776 0.8939090953661188 -0.40258023040660657
C -8.55994783841685 1.2480233661022868 -0.9521552272027659
C -8.635109753324462 1.7196402899102825 -2.3969850914121773
C -7.401912191861798 1.6656720905496283 -3.2441604067906327
C -7.3315442324527025 2.9181634996279797 -4.006831323461865
C -6.142717290343898 3.5392036880919275 -4.249778541087555
C -6.014599499022192 5.004025884432831 -4.441468344463889
C -4.777454650759835 5.386865267565822 -3.7353503710216
C -4.692081987402224 6.5317478800696 -2.9642190835701037
C -3.8795137816985057 6.526130065488778 -1.782015602288727
C -3.1863512281276924 5.373127064988131 -1.4245210579135514
C -3.132311215918219 4.959672118340017 -0.04662486626247453
C -3.7741644613393475 5.713387205527022 0.9302937533895905
C -4.51674083508088 5.046367313565517 1.9594304154435491
C -4.58407616586063 3.6579035364869457 1.9678187842269297
C -5.802386594257024 2.9876967353539556 2.3123589433069047
C -6.951003879967446 3.7236233937113745 2.5310068701329773
C -8.22947447589445 3.3105597140428946 1.9807061425620256
C -8.343426603141197 2.160737339189852 1.2468034362815645
C -9.255369932049268 2.0514576488215837 0.10496531727262177
C -10.003872857631977 3.33207844759152 -0.3023561369591092
C -9.877782200196306 3.775321236651011 -1.7084363851992734
C -9.266542297403864 3.026972936986672 -2.6678024335866675
C -8.598724470857883 3.6531338612142426 -3.817264196657805
C -8.5601052628447 5.199942897423286 -3.864202967456513
C -7.264549073192 5.877070879349452 -4.184344743471956
C -7.108576017564746 6.955848551593467 -3.1976041383180362
C -5.877185093589889 7.318047929932046 -2.6817951844969716
C -5.78152053720158 7.77916861836974 -1.3274717515484058
C -4.5467032135870555 7.300602655786174 -0.7672013291075408
C -4.49734701853565 6.904044435654377 0.5624578066350663
C -5.684053526856591 6.9637424641748344 1.3786465918141835
C -5.698925684827211 5.8127217551537615 2.2352444825992017
C -6.900328329998247 5.160942561004605 2.4994251243228724
C -8.132179271414469 5.657603750994073 1.949529890328303
C -8.963691878175112 4.512964600305058 1.615307788831809
C -9.784769498935404 4.531078473744216 0.5214354229047282
C -9.904555232383723 5.7132263438915825 -0.345084069301443
C -9.822606749343226 5.215154051880232 -1.7280476199161299
C -9.125421598062633 5.886013053596539 -2.700614761937032
C -8.267802902732818 6.995251470972158 -2.3616654172734615
C -8.195607833628175 7.489593616149227 -1.0703127065223537
C -6.92402817553601 7.843758271420979 -0.5344436027124844
C -6.878492658509113 7.4250686012072515 0.8409727577248102
C -8.12682599359523 6.798401969640646 1.1684374538699707
C -9.02848998404738 6.952601236847135 0.015484708481008228
O -10.40990100832286 6.936589221877517 0.04448694924031798
O -6.635551085040762 5.777216613666141 -5.410047516073547
O -6.790761878178586 0.47518780042260217 -3.5937771123169386
O -9.26304785514038 0.5719275410263035 -1.9373782047595636
O -10.630451499031961 2.184813020752044 0.1537805169670649
O -6.524787384394307 0.5730091667820121 2.001743660430726
O -9.254794338954774 4.417450470380942 -4.766478336565162
O -2.926363921903663 -3.96707833218751 -0.7916875114121259
O -0.8159133688453108 -4.880216781290524 0.17709312048035827
H -1.4857724248879272 -4.687355402163548 0.8475733546005446
H -2.7255860633750295 -4.876122050433926 -1.0547748591165944
C 0.7700715558486825 -1.2140614778955392 -2.050083309341546
H 1.3220099950789963 -1.0122529096661022 -1.1628364162723364
H 1.3204477948559725 -1.865097557825996 -2.6883752184098624
H -0.18217133316199188 -1.6408653496560726 -1.8111020053212756
C 0.5994714436608408 0.06114770468964979 -2.7658940130991247
H 0.05782811788988334 -0.11986256949639602 -3.663933623381249
H 1.5730911877408629 0.4352724594143424 -2.992728076442099
H 0.07551067274841881 0.7437767035399085 -2.136103768609674
