%nprocs=1
# freq=noraman 
external="xtb-gaussian -P 4"

Simple test

0 1                                                                          
C           -1.16243785850486       -0.21929924242893       -2.60596296774375
C           -1.53007713637383        0.21962675563379       -1.38844700919124
H           -0.79884868587534        0.44947118124484       -3.36753738804948
H           -1.25415073159410       -1.25651457737711       -2.87619787533824
H           -1.49988287173192        1.26338773694161       -1.12546997880049
H           -1.94829907488501       -0.44973260009723       -0.65724351144206
O            0.45582213591035       -0.33045155176526       -1.22796628611387
O            1.84268320338543       -0.84699506887325       -0.52453850369489
O            2.72599331516798        1.10206704062680       -1.15441040924887
H            0.81266551904387        0.53834568960438       -1.51668183399347
C            2.78502043703446        0.01747978771368       -0.62254745281875
H            3.70161831142128       -0.36614282022268       -0.13883509156401





