12
 energy: -21.524754709103 gnorm: 0.000685791051 xtb: 6.6.1 (8d0f1dd)
C            2.24616417942575        0.08060735702507       -0.66778482002294
H            2.46195205326344       -0.81309315868468       -1.22654693582574
H            2.08309103462153        0.97819053882103       -1.24154087101226
C            2.24611690707302        0.08215233841866        0.67256689262849
H            2.08285852026587        0.98112731205976        1.24413605565446
H            2.46172391511660       -0.81018738722260        1.23353316632445
O           -1.22401514526337       -0.93763366367621        0.00266067464845
O            0.31225332648181       -0.37107923918600        0.00284196489092
H            0.02236767255504        0.56793488686775        0.00227384671646
C           -2.04582413143120        0.05222183353643        0.00200302036346
H           -3.08601505235635       -0.32673525236765        0.00171392012823
O           -1.76336101894704        1.22349537133089        0.00131153870397
