12
 energy: -21.534128835551 gnorm: 0.000850577468 xtb: 6.6.1 (8d0f1dd)
C            2.30279077450044        0.10141888973418       -0.67347595724839
H            2.48489204774320       -0.79901689956501       -1.23336315370551
H            2.18000972432916        1.00759989560670       -1.24196472482219
C            2.30314194442640        0.09833306236239        0.67161879392324
H            2.18078880884164        1.00192332106068        1.24429802269967
H            2.48560274844480       -0.80464608012985        1.22726519730897
O           -1.17549707563143       -0.87868460095051       -0.00121261536927
O            0.35345562351974       -0.29319398486665       -0.00074786729421
H            0.09575400439381        0.65473654458257        0.00157565687753
C           -2.05329327390450        0.05664945121557        0.00132731517939
H           -3.06870677882750       -0.37955924382077        0.00085348374314
O           -1.84844254778912        1.24844364475029        0.00380284868328
