16
 energy: -17.805186133815 gnorm: 0.000777736845 xtb: 6.6.1 (8d0f1dd)
C           -2.28538655999409        0.23397642566289       -0.75801124896233
C           -1.35284104401880       -0.06141865648890       -1.69584762038789
C            0.01708236141314       -0.21100839207632       -1.43485984807701
C            0.52248990950616       -0.24585324340472       -0.12442089248983
H           -2.02673903110268        0.57143839856774        0.22781494907744
H           -3.33546896215451        0.20823756395206       -0.99145873981127
H           -1.68724495922193       -0.26615606260019       -2.70558316556302
H            0.64615148303786       -0.56233632534571       -2.24049772607657
H            1.60279007977001       -0.28749912655440       -0.04781927481714
H            0.09258533065663        0.45884762420654        0.57524647311228
C           -1.34438629273220       -1.91577723426496        0.85810865698955
C            0.02895177690697       -1.79165880212336        0.65446168563113
H           -1.82503253414103       -1.45210919449079        1.70043472128303
H           -1.97836287171021       -2.41114121025228        0.14726777183948
H            0.61391230603018       -1.66860119593144        1.55932417024448
H            0.46439738975475       -2.51472704685609       -0.02624695099218
