16
 energy: -17.822927513150 gnorm: 0.000851140413 xtb: 6.6.1 (8d0f1dd)
C           -2.17618261277760        0.38880474254899       -0.74201068066940
C           -1.34308000177926       -0.03420312354911       -1.68663826668983
C            0.10684928809112       -0.06933277339783       -1.59742374461428
C            0.83411265250569        0.25087536809772       -0.53261455059315
H           -1.82929177688458        0.76957567609264        0.20242687849022
H           -3.24307656666242        0.37530417633209       -0.88553947954264
H           -1.75199889024809       -0.39696834669808       -2.62174627942458
H            0.61193008520471       -0.40318804757006       -2.49550019064072
H            1.90883246216168        0.19047643462520       -0.54664767768235
H            0.38936161226097        0.58627429494770        0.38766881047252
C           -1.54537329781218       -2.25147289538548        0.95240458955340
C           -0.23939307848472       -2.27107701487773        1.11892630753223
H           -2.20692381097390       -1.79246841585019        1.66966052869724
H           -2.01622128522876       -2.69596671338690        0.09169550229900
H            0.23393098837228       -1.82994304969412        1.98089659422809
H            0.41942261425385       -2.73247679023388        0.40235461958113
