8
 energy: -12.867153069983 gnorm: 0.000621780797 xtb: 6.6.1 (8d0f1dd)
C           -0.18130507864912       -0.49941926193671       -0.48005975546658
H            0.08065063958669        0.26150545439233       -1.20314373158952
H           -1.10287966651547       -1.03210820113121       -0.67359412968866
H            0.67813782702001       -1.19304654387975       -0.25565150570045
O           -0.43814406894487        0.31277876808689        0.92798684217987
H           -0.64917555137381       -0.36062356386268        1.60944330489249
H            0.39428631903647        0.78806108656108        1.13824859630184
Cl           2.22168909584059       -2.31882000322931        0.43321237306936
