16
 energy: -17.821167924432 gnorm: 0.000645160458 xtb: 6.6.1 (8d0f1dd)
C           -2.17941044602801        0.25720185861742       -0.65986121505292
C           -1.34387189431669       -0.08913849065775       -1.63531059891933
C            0.10117062214682       -0.13669978396889       -1.53246801059216
C            0.80990048044951        0.14328767235181       -0.44182395647266
H           -1.83466882417225        0.61426908339865        0.29349738949811
H           -3.24702073657017        0.23643363845445       -0.80145914922851
H           -1.75010176834511       -0.41091730213410       -2.58615514814343
H            0.61687250331065       -0.47697643479935       -2.42178247269653
H            1.88305059334808        0.05440645955778       -0.43204615691830
H            0.35688052493904        0.51316825725630        0.45999466710321
C           -1.53177843896649       -2.08225594215023        0.83378673686634
C           -0.22020533991012       -2.10577735180912        0.97388027553924
H           -2.17629883824167       -1.61961647200739        1.56247169601050
H           -2.02331812193190       -2.55297612287051       -0.00045375387474
H            0.27121743497870       -1.66340205079085        1.82425874051048
H            0.42048063130993       -2.59679349644955        0.26138391737016
