8
 energy: -12.812763392945 gnorm: 0.000548601942 xtb: 6.6.1 (8d0f1dd)
C            0.26944027174462       -0.75348559683101       -0.08105200971345
H            0.68201285420466       -0.14035308688430       -0.86511598149457
H           -0.52383177848266       -1.43161333808404       -0.34871184225477
H            0.87778149594134       -0.97781451893077        0.77964832927928
O           -0.89854409269949        0.67255494220663        0.74709357299939
H           -1.31523047104080        0.21190131948896        1.49653399826584
H           -0.25563836133327        1.33095748939517        1.06496937876248
Cl           2.16726959766568       -2.95381947536070       -1.29692345184402
