8
 energy: -14.618245152585 gnorm: 0.000788304978 xtb: 6.6.1 (8d0f1dd)
C           -3.44398446280467       -0.40673334158852       -0.46120520326050
C           -3.48298762175663       -0.38096031779307        0.99453686272168
H           -3.45617157946991        0.55776544962317       -0.98095753385687
H           -4.06787574025891       -1.15244761433966       -0.96520038747520
H           -3.49951389677772        0.59704273751919        1.48244521413455
H           -4.12328870380602       -1.11032306270749        1.49763985200285
Br          -1.41534748620919       -1.13375285723309        0.48771505234917
Br           0.50755391308127       -1.82614342548087        0.28779250938441
8
 energy: -14.603652760662 gnorm: 0.000695945484 xtb: 6.6.1 (8d0f1dd)
C           -3.44297118919952       -0.40739754773619       -0.45874215971494
C           -3.48642968500595       -0.37951619464324        0.99495084120097
H           -3.45633663329145        0.55731934417879       -0.97886448241207
H           -4.06927928346686       -1.15161604220744       -0.96366487639324
H           -3.50544592457708        0.59925507531594        1.48208572899109
H           -4.12799797231714       -1.10890488598388        1.49720186986479
Br          -1.38707890053823       -1.14288458242982        0.47997582669637
Br           0.49392401039446       -1.82180759849449        0.28982361776712
8
 energy: -14.576584698928 gnorm: 0.000632583007 xtb: 6.6.1 (8d0f1dd)
C           -3.44011234465976       -0.40819171288054       -0.45529157021868
C           -3.48766139627760       -0.37847825220139        0.99592399295461
H           -3.45617400634220        0.55686237009758       -0.97631132748534
H           -4.06879757828723       -1.15133606249605       -0.96089864015349
H           -3.51312872824890        0.60159835908087        1.48127943900897
H           -4.13336723545547       -1.10671036819429        1.49616226923451
Br          -1.35230873440287       -1.15572167619087        0.46972208725125
Br           0.46993444567226       -1.81357508921563        0.29218011540826
