8
 energy: -12.840622249626 gnorm: 0.000860912152 xtb: 6.6.1 (8d0f1dd)
C            0.36733471919946       -0.94165366899370       -0.30020730107665
H            0.60596103138716       -0.15930002575741       -1.00114453153446
H           -0.54851340775254       -1.48874761183119       -0.45289248753328
H            0.78634048358499       -0.91239497008343        0.71308996639264
O           -0.68666394538982        0.44459770926044        0.73468052273839
H           -1.15109112732691        0.10167999899313        1.51704602098748
H           -0.16877139748657        1.23222910393060        0.97407289026203
Cl           1.79866315978433       -2.31808280051835       -0.68820308623629
