8
 energy: -12.775385811139 gnorm: 0.000829466145 xtb: 6.6.1 (8d0f1dd)
C            0.37633038201861       -0.89970314723820       -0.21304193121175
H            0.56414512775075       -0.10636665167005       -0.94619847240185
H           -0.57697692606960       -1.40333572227110       -0.41174425944656
H            0.82574991438226       -0.90440093481186        0.82709636333958
O           -0.50035727564824        0.23508208073039        0.61821738785608
H           -1.09367336325935       -0.03025789898354        1.36095540569775
H           -0.10900785028714        1.10983982313038        0.85376760624511
Cl           1.51704950711264       -2.04252981388598       -0.59261010607838
8
 energy: -12.838374181606 gnorm: 0.000977841325 xtb: 6.6.1 (8d0f1dd)
C            0.47836065166600       -1.04824976255431       -0.35806962032464
H            0.65316438696261       -0.17148269475021       -0.98087450732795
H           -0.52952815899451       -1.44544565844715       -0.47322408075655
H            0.64804083734712       -0.77111749776252        0.72496298233364
O           -0.51314289694241        0.31717980198059        0.76883667429137
H           -1.19283298951581        0.09728839770298        1.43246051979397
H           -0.16159677502366        1.19498517185660        1.00459776807584
Cl           1.62079446050069       -2.21483002302599       -0.62224774208563
8
 energy: -12.873654161579 gnorm: 0.000695181986 xtb: 6.6.1 (8d0f1dd)
C            0.45860210248285       -1.14356177087797       -0.59446707565956
H            0.69759262083684       -0.40335219692508       -1.35332029617954
H           -0.45084897149321       -1.71005228802996       -0.77549954249516
H            0.04291018035161       -0.34163617338097        0.38668550957793
O           -0.51994383019621        0.41411770956939        0.94988665096637
H           -1.01097898359763        0.03145265526353        1.70378010612183
H            0.04323692504368        1.15421737887046        1.25102497238482
Cl           1.74268947257196       -2.04285757948964       -0.07164833071649
8
 energy: -12.876990142472 gnorm: 0.000616533362 xtb: 6.6.1 (8d0f1dd)
C            0.59480124178105       -1.50474303545218       -0.10439820561830
H            0.06729380543992       -0.43703767734403        0.12595482153489
H           -0.26545812167329       -2.16208326829034       -0.24683470459545
H            1.16929676872512       -1.69087028436805        0.80539749484514
O           -0.60371786701689        0.93704708016666        0.44141574495563
H           -1.45238160598564        0.74173148930720        0.86496200546741
H           -0.03501860687954        1.40879359674382        1.06706720235373
Cl           1.52844390160918       -1.33451016576329       -1.45712236494302
8
 energy: -12.867844338858 gnorm: 0.000820502967 xtb: 6.6.1 (8d0f1dd)
C            0.70321430618659       -1.59920425999882       -0.14462785441307
H            0.14549914054596       -0.62322761744383        0.11924126332195
H           -0.10040590408756       -2.34052208071438       -0.20642325592860
H            1.38468522322868       -1.74112526495923        0.70045460939592
O           -0.77297531201679        1.10072877293105        0.52537127111955
H           -1.61791987668340        0.91416271939713        0.95700893444346
H           -0.23273556276528        1.63168965907223        1.12515996557851
Cl           1.49389750159174       -1.38417419328341       -1.57974293951759
8
 energy: -12.832744632054 gnorm: 0.000596105084 xtb: 6.6.1 (8d0f1dd)
C            0.27751364541233       -0.77906048477770       -0.15355708810792
H            0.60664310868385       -0.12753316506420       -0.95065722901627
H           -0.55285352744678       -1.42209283496645       -0.40905232219398
H            0.89452576203092       -0.94691994997582        0.73812027493492
O           -0.63638265078499        0.35587786606120        0.62243496778680
H           -1.12044327349774       -0.03000598734575        1.38346231872211
H           -0.09267318375285        1.11884801476498        0.91218455983710
Cl           1.62692963535522       -2.21078572369628       -0.64649348796266
8
 energy: -12.840622249626 gnorm: 0.000860912152 xtb: 6.6.1 (8d0f1dd)
C            0.36733471919946       -0.94165366899370       -0.30020730107665
H            0.60596103138716       -0.15930002575741       -1.00114453153446
H           -0.54851340775254       -1.48874761183119       -0.45289248753328
H            0.78634048358499       -0.91239497008343        0.71308996639264
O           -0.68666394538982        0.44459770926044        0.73468052273839
H           -1.15109112732691        0.10167999899313        1.51704602098748
H           -0.16877139748657        1.23222910393060        0.97407289026203
Cl           1.79866315978433       -2.31808280051835       -0.68820308623629
8
 energy: -12.854209181445 gnorm: 0.000882132933 xtb: 6.6.1 (8d0f1dd)
C            0.30825106903562       -1.03667630517022       -0.68001580962056
H            0.72097354184650       -0.40106442592362       -1.44657261110828
H           -0.49215467178882       -1.72962134970093       -0.88145988692767
H           -0.03178080254106       -0.30952764056038        0.29181486532544
O           -0.52653562947410        0.45262059749659        1.00877825394705
H           -0.94809789552549       -0.01393956222564        1.75586779367204
H            0.13854099212279        1.09087832329731        1.33058040539044
Cl           1.83406291232451       -2.09434190221309        0.11744898332202
8
 energy: -12.856786164851 gnorm: 0.000990186599 xtb: 6.6.1 (8d0f1dd)
C            0.48949721524312       -1.54049588549240        0.04853781087404
H            0.04726901565774       -0.47027444380310        0.14720608980257
H           -0.28871151518443       -2.23958732766634       -0.22252721786335
H            1.17812488893517       -1.74691614878989        0.85510431577774
O           -0.59242704477658        0.98854376827627        0.41002674706838
H           -1.45231359447072        0.82853813588138        0.82905046422312
H           -0.00423529007420        1.44048053364685        1.03395156538970
Cl           1.62605584066989       -1.30196089705289       -1.60490778127179
8
 energy: -12.849271603098 gnorm: 0.000651538589 xtb: 6.6.1 (8d0f1dd)
C            0.48696275718692       -1.65841834912692       -0.12868812389960
H            0.18646385048403       -0.63797630159339        0.22694897971662
H           -0.23638848742813       -2.07321111997871       -0.81786727747076
H            0.86949204192373       -2.26186182738686        0.68382823954150
O           -0.44488326316565        1.18535717579753        0.85268789154385
H           -0.86329453675712        1.08658992280844        1.72042347817699
H           -1.09378463832134        1.52880042945624        0.22175379856904
Cl           2.09869179207652       -1.21095219497571       -1.26264499217794
8
 energy: -12.854760043164 gnorm: 0.000878203725 xtb: 6.6.1 (8d0f1dd)
C            0.15760237497314       -0.68724612230757       -0.16951320001745
H            0.56216483406708       -0.11859597495486       -0.99166727049104
H           -0.59731031095682       -1.40051889781736       -0.46011043345567
H            0.89593572840109       -1.05665333705059        0.55372900690912
O           -0.69229708462806        0.43590873108458        0.68406313837044
H           -1.10335679725134       -0.01306732571331        1.45330729340731
H           -0.07336235167264        1.14636017539349        0.95709336932665
Cl           1.85388312306751       -2.34785951363438       -0.53045991004936
8
 energy: -12.822883283172 gnorm: 0.000876378772 xtb: 6.6.1 (8d0f1dd)
C            0.30328874756064       -0.83376152941053       -0.21884685341130
H            0.64416882746821       -0.14797090499049       -0.97494797562062
H           -0.54562449298103       -1.45977985636899       -0.43168012862017
H            0.89764315677857       -1.00583684172607        0.67218400340685
O           -0.80078665701356        0.56868068732625        0.73260521344487
H           -1.22281012113367        0.11819996013546        1.48363266256760
H           -0.17270430695762        1.24105743916333        1.04682973256135
Cl           1.90008436227841       -2.52226121912906       -0.81333466032853
8
 energy: -12.805824988164 gnorm: 0.000384576301 xtb: 6.6.1 (8d0f1dd)
C            0.45620232128346       -0.99341949954807       -0.28183877557043
H            0.75008439726520       -0.24060180874163       -0.99532607965311
H           -0.45362456543611       -1.54556173344227       -0.45113780402377
H            0.91482386056612       -1.00382906817953        0.69690193059864
O           -0.85185551625923        0.66887978618482        0.85025682681636
H           -1.41271357114624        0.33456021149094        1.56547054866055
H           -0.35313455777615        1.43838880300572        1.16242305049105
Cl           1.95347714750287       -2.70008895577006       -1.05030770331934
8
 energy: -12.801265569589 gnorm: 0.000362547086 xtb: 6.6.1 (8d0f1dd)
C            0.58316362571924       -1.12217346813133       -0.34133724464988
H            0.91676654200134       -0.34763642844763       -1.01410731962444
H           -0.35476896343626       -1.61568907631652       -0.54302159873018
H            0.97023435797010       -1.13469137202883        0.66657681518833
O           -0.86945337857210        0.76472845041637        1.08310827905475
H           -1.59243369763745        0.56582424745051        1.69658733847269
H           -0.64796275721218        1.70574923111090        1.14391992349968
Cl           1.99771378716815       -2.85778384905423       -1.19528419921108
8
 energy: -12.799827239889 gnorm: 0.000809722308 xtb: 6.6.1 (8d0f1dd)
C            0.62582411871210       -1.24849228894608       -0.40836848437915
H            0.88058849822839       -0.47824566191672       -1.12025109298879
H           -0.27483240067467       -1.82132778948700       -0.56684900315539
H            1.03112427382881       -1.18477535614331        0.58998707699632
O           -0.95303380421929        0.93913855054339        1.21746829711523
H           -1.79455342298448        0.79789591350437        1.67616390629286
H           -0.66287382473535        1.85531991982495        1.34409609061285
Cl           2.15101607784466       -2.90118555238070       -1.23580479649407
8
 energy: -12.867898209890 gnorm: 0.000332063280 xtb: 6.6.1 (8d0f1dd)
C           -0.16723698693966       -0.57986157679444       -0.52638668040087
H            0.12888532979445        0.15404358327047       -1.26578711286810
H           -1.11866604866873       -1.07067148781411       -0.69477205309625
H            0.65345287799512       -1.30383055299185       -0.29870909868444
O           -0.35978009722878        0.27509429853100        0.86616401042967
H           -0.64425740394038       -0.37502628193715        1.54246628827275
H            0.53726284434177        0.60905007890425        1.07644885899417
Cl           1.97359900064412       -1.75047032616996        0.79701778133665
8
 energy: -12.815638547443 gnorm: 0.000988152464 xtb: 6.6.1 (8d0f1dd)
C            0.30549799462884       -0.79268626408919       -0.10004573971976
H            0.71629199416673       -0.16224999726182       -0.87034605166190
H           -0.49709787255650       -1.45740437637343       -0.37141522031836
H            0.89360925046560       -1.00727254106017        0.77624016420747
O           -0.87249127608206        0.63037775498200        0.72006714416593
H           -1.28014919894431        0.17906727175654        1.47910124929960
H           -0.23990655243040        1.30325942918280        1.02630737608851
Cl           1.97750517675207       -2.73476354213667       -1.16346692806147
8
 energy: -12.783395537387 gnorm: 0.000888307787 xtb: 6.6.1 (8d0f1dd)
C            0.42990251461066       -0.92695181273351       -0.16072210529163
H            0.80954843122754       -0.20097111121780       -0.86227819477091
H           -0.44576163736011       -1.50087467431811       -0.42086925857056
H            0.93176189956714       -1.09182812545521        0.78002767927397
O           -0.99859688741520        0.73905625144915        0.80539664395777
H           -1.35039938440124        0.33646779272777        1.61311384326606
H           -0.41736726699956        1.47617630984697        1.04335028372903
Cl           2.04417184677071       -2.87274689529921       -1.30157689759376
8
 energy: -12.770468852364 gnorm: 0.000784195448 xtb: 6.6.1 (8d0f1dd)
C            0.57081556292268       -1.06979207350998       -0.25211374770799
H            0.93298169959302       -0.31235398693216       -0.93236451460851
H           -0.34787353863954       -1.59196126339488       -0.47721447354298
H            1.05659011207700       -1.21503491091312        0.70233458701667
O           -0.98936542108861        0.83310722725415        1.02974484120295
H           -1.62618755102689        0.61231347946107        1.72431212738814
H           -0.70154730528118        1.75010494412457        1.14258455822146
Cl           2.10784595744339       -3.04805568108960       -1.44084138396957
8
 energy: -12.767872881016 gnorm: 0.000634016768 xtb: 6.6.1 (8d0f1dd)
C            0.62568505002589       -1.14472002335682       -0.39975858950138
H            1.01969383591571       -0.43975229511994       -1.11842431985450
H           -0.28381325568281       -1.68537474548150       -0.62086672564751
H            1.05841708038691       -1.20117878036200        0.58937826701332
O           -1.02188934426526        0.96114372804418        1.26535849738959
H           -1.75900096640302        0.75851981065351        1.85963257419611
H           -0.85262198130114        1.91392690193871        1.27746582040252
Cl           2.21678909732341       -3.20423686131702       -1.35634352999877
8
 energy: -12.867153069983 gnorm: 0.000621780797 xtb: 6.6.1 (8d0f1dd)
C           -0.18130507864912       -0.49941926193671       -0.48005975546658
H            0.08065063958669        0.26150545439233       -1.20314373158952
H           -1.10287966651547       -1.03210820113121       -0.67359412968866
H            0.67813782702001       -1.19304654387975       -0.25565150570045
O           -0.43814406894487        0.31277876808689        0.92798684217987
H           -0.64917555137381       -0.36062356386268        1.60944330489249
H            0.39428631903647        0.78806108656108        1.13824859630184
Cl           2.22168909584059       -2.31882000322931        0.43321237306936
8
 energy: -12.812763392945 gnorm: 0.000548601942 xtb: 6.6.1 (8d0f1dd)
C            0.26944027174462       -0.75348559683101       -0.08105200971345
H            0.68201285420466       -0.14035308688430       -0.86511598149457
H           -0.52383177848266       -1.43161333808404       -0.34871184225477
H            0.87778149594134       -0.97781451893077        0.77964832927928
O           -0.89854409269949        0.67255494220663        0.74709357299939
H           -1.31523047104080        0.21190131948896        1.49653399826584
H           -0.25563836133327        1.33095748939517        1.06496937876248
Cl           2.16726959766568       -2.95381947536070       -1.29692345184402
8
 energy: -12.775175907021 gnorm: 0.000688071805 xtb: 6.6.1 (8d0f1dd)
C            0.38107782661023       -0.89159304604218       -0.12991128153490
H            0.77202565882442       -0.19619524956845       -0.85721382994706
H           -0.48009522730208       -1.49102868066764       -0.38692871824734
H            0.90484621809614       -1.06233201520348        0.79894261419887
O           -1.02944840768658        0.79739213350922        0.82135698513606
H           -1.38494010096780        0.37121320568183        1.61587543293898
H           -0.40582498535409        1.49187538688315        1.08221165087653
Cl           2.24561853377976       -3.06100399959241       -1.44789085942114
8
 energy: -12.755300092433 gnorm: 0.000571977381 xtb: 6.6.1 (8d0f1dd)
C            0.49679261062620       -1.03025381295630       -0.19724940283345
H            0.81433038215439       -0.29271616149424       -0.92376897369564
H           -0.39613370995912       -1.61316157015587       -0.38621059446181
H            1.05347522394228       -1.16797202634398        0.72142060758957
O           -1.08203426086906        0.94740123712927        0.93896051536300
H           -1.64356100346330        0.61887560240233        1.65422336819320
H           -0.55848025346046        1.68786027744744        1.27396479363863
Cl           2.31887052702928       -3.19170581102951       -1.58489831979349
8
 energy: -12.750112468927 gnorm: 0.000882674533 xtb: 6.6.1 (8d0f1dd)
C            0.55090714306701       -1.15146247498374       -0.35172295463947
H            0.88661932283052       -0.42390365323792       -1.08245263235291
H           -0.31901259208791       -1.76503146839759       -0.55856937665064
H            1.05188342767262       -1.22699788564253        0.60715656014930
O           -1.03024991074586        1.02813276980806        1.28242922165032
H           -1.83580353629429        0.87315785248937        1.79403723858063
H           -0.77053039864860        1.95405523938153        1.37803662904588
Cl           2.46944606020713       -3.32962264441746       -1.57247269178285
