12
 energy: -20.284857538762 gnorm: 0.000690872255 xtb: 6.6.1 (8d0f1dd)
O            0.59465194318088        0.55441448458611        1.86079212805779
O            1.82971854439036        0.09368230893625       -0.13932406053532
O            2.64114001234326        0.94674814519301        3.04243215556899
O            3.87551320896796        0.42579218475010        1.05863638514719
H            1.57532971825725        0.77272781865585        2.51795850716709
H            1.14207455421463        0.31727146000877        0.81901416323910
H            2.89779956152413        0.27188096210157        0.37912002832098
H            3.33299659288567        0.72943094607001        2.08566605586166
H            0.15065196651222        1.39660345300601        1.74822944913818
H            1.73931381305781       -0.83517373167095       -0.35959112196421
H            4.31283060300090       -0.42003245806484        1.17391313501888
H            2.77156708666502        0.25013025242792        3.68832440997982
