16
 energy: -17.810221659946 gnorm: 0.000846989872 xtb: 6.6.1 (8d0f1dd)
C           -2.03304244612294       -0.02912391618734       -0.43179328475956
C           -1.29017355133485       -0.16197027700428       -1.55356587966987
C            0.14047674376262       -0.10255039924365       -1.56129813832488
C            0.89926626228700        0.14341768069399       -0.48668241048713
H           -1.65579977450397        0.51780375962525        0.41431938705248
H           -3.10747536453756       -0.10449527546197       -0.48907492423335
H           -1.76051252248935       -0.52325884748071       -2.45873639558622
H            0.62356361247015       -0.36346440028113       -2.49446296847529
H            1.97319601700114        0.08286930961442       -0.53536167918909
H            0.48789591481522        0.46980052325817        0.45002308451686
C           -1.66995971809956       -1.86484748187688        0.62864541270252
C           -0.36757583290779       -1.98306296067250        0.92590080171430
H           -2.36576826898151       -1.51553846595367        1.37432534394015
H           -2.09597027014083       -2.44906651405394       -0.17084600072952
H            0.05383438034534       -1.54097913795521        1.81244548629502
H            0.32094320043690       -2.49132007502060        0.27407512623380
