16
 energy: -17.815738608001 gnorm: 0.000807552679 xtb: 6.6.1 (8d0f1dd)
C           -2.21345661228093        0.12070394368150       -0.63692562439350
C           -1.32284506354282       -0.09848729806360       -1.66516073957673
C            0.03847501784859       -0.19009939536522       -1.46606552662925
C            0.56924865837095       -0.23016359145247       -0.14786399683161
H           -1.92642115506433        0.64715788801531        0.25397187873734
H           -3.27157502773560        0.00172750480889       -0.79517147396554
H           -1.71671092119465       -0.32631223350851       -2.64778523082641
H            0.67054564925553       -0.48591526380847       -2.29085456358770
H            1.64872370690968       -0.30979054932186       -0.08670530021500
H            0.18216253709824        0.51127472874225        0.53974034848493
C           -1.43764440401523       -1.81719740730303        0.73581839809115
C           -0.02746878000300       -1.73563172547399        0.63522168441722
H           -1.94802000205547       -1.43199550089943        1.59920585941504
H           -2.00215061488767       -2.44673251864119        0.07483423166329
H            0.48450131201341       -1.62698830458442        1.58521665916486
H            0.42553408128329       -2.49733675482568        0.01043635705167
