8
 energy: -12.854760043164 gnorm: 0.000878203725 xtb: 6.6.1 (8d0f1dd)
C            0.15760237497314       -0.68724612230757       -0.16951320001745
H            0.56216483406708       -0.11859597495486       -0.99166727049104
H           -0.59731031095682       -1.40051889781736       -0.46011043345567
H            0.89593572840109       -1.05665333705059        0.55372900690912
O           -0.69229708462806        0.43590873108458        0.68406313837044
H           -1.10335679725134       -0.01306732571331        1.45330729340731
H           -0.07336235167264        1.14636017539349        0.95709336932665
Cl           1.85388312306751       -2.34785951363438       -0.53045991004936
